<?xml version="1.0" encoding="UTF-8"?><!DOCTYPE facilities SYSTEM "http://matsim.org/files/dtd/facilities_v1.dtd"><facilities>
  <!--NTS london prelim 24nov2020 epsg27700-->
  <facility id="_0" x="400017.00259754667" y="396120.8170896905">
    <activity type="home"/>
  </facility>
  <facility id="_1" x="405115.7806228561" y="401808.55014710344">
    <activity type="visit"/>
  </facility>
  <facility id="_2" x="395409.0037658977" y="398876.9766110223">
    <activity type="other"/>
  </facility>
  <facility id="_3" x="355996.0601088424" y="407459.22848313925">
    <activity type="home"/>
  </facility>
  <facility id="_4" x="394519.70116447506" y="413752.97898706817">
    <activity type="visit"/>
  </facility>
  <facility id="_5" x="394438.12276607373" y="407955.98944859835">
    <activity type="other"/>
  </facility>
  <facility id="_6" x="388416.13889729726" y="400657.9695526984">
    <activity type="home"/>
  </facility>
  <facility id="_7" x="395907.97785830026" y="406192.2822575554">
    <activity type="visit"/>
  </facility>
  <facility id="_8" x="396099.121016412" y="403301.82915482746">
    <activity type="other"/>
  </facility>
  <facility id="_9" x="376124.3087789904" y="412056.85270379024">
    <activity type="home"/>
  </facility>
  <facility id="_10" x="395973.2327178969" y="385940.44316024287">
    <activity type="visit"/>
  </facility>
  <facility id="_11" x="378158.57950017723" y="398917.0399097003">
    <activity type="other"/>
  </facility>
  <facility id="569879" x="504066.61443246616" y="192376.509127034">
    <activity type="home"/>
  </facility>
  <facility id="239168" x="528618.8018445394" y="184805.56191622448">
    <activity type="work"/>
  </facility>
  <facility id="74584" x="509875.8657822209" y="192505.20330276282">
    <activity type="home"/>
  </facility>
  <facility id="49776" x="527071.6511991143" y="182113.55376537784">
    <activity type="work"/>
  </facility>
  <facility id="569866" x="504118.18826623005" y="192055.44046680024">
    <activity type="home"/>
  </facility>
  <facility id="260822" x="503647.78270251513" y="193636.18977517827">
    <activity type="escort"/>
  </facility>
  <facility id="411036" x="536058.3655004741" y="200212.57017308526">
    <activity type="shop"/>
  </facility>
  <facility id="263152" x="520901.1959874125" y="195655.22809879575">
    <activity type="shop"/>
  </facility>
  <facility id="98107" x="536291.3174677753" y="199555.19017070433">
    <activity type="home"/>
  </facility>
  <facility id="63831" x="523189.1994295206" y="166055.58234186668">
    <activity type="education"/>
  </facility>
  <facility id="196276" x="537324.9630063185" y="190902.4891602114">
    <activity type="home"/>
  </facility>
  <facility id="74055" x="518033.3437406461" y="189738.12369169487">
    <activity type="education"/>
  </facility>
  <facility id="501289" x="528713.5191319123" y="191213.54338892427">
    <activity type="home"/>
  </facility>
  <facility id="48229" x="533175.5503275824" y="170342.2135273312">
    <activity type="other"/>
  </facility>
  <facility id="178780" x="555597.3589914261" y="185814.58561404282">
    <activity type="shop"/>
  </facility>
  <facility id="_12" x="599544.4698846736" y="311102.9147565504">
    <activity type="home"/>
  </facility>
  <facility id="_13" x="635728.2896524386" y="316188.82338954724">
    <activity type="other"/>
  </facility>
  <facility id="_14" x="594805.0225987998" y="284350.34635794326">
    <activity type="home"/>
  </facility>
  <facility id="_15" x="626970.4414637502" y="332792.83833335456">
    <activity type="other"/>
  </facility>
  <facility id="_16" x="592234.4518475652" y="327911.6872829076">
    <activity type="home"/>
  </facility>
  <facility id="_17" x="586202.7824636896" y="322076.4050497099">
    <activity type="other"/>
  </facility>
  <facility id="_18" x="394420.48744035506" y="473608.8418254331">
    <activity type="home"/>
  </facility>
  <facility id="_19" x="388967.94091690704" y="385193.7769075756">
    <activity type="work"/>
  </facility>
  <facility id="_20" x="428698.6211406036" y="476154.7006962461">
    <activity type="work"/>
  </facility>
  <facility id="_21" x="357074.07358063036" y="411871.89099337766">
    <activity type="home"/>
  </facility>
  <facility id="_22" x="396758.52850876475" y="392430.0336537827">
    <activity type="education"/>
  </facility>
  <facility id="_23" x="377586.7595453117" y="409293.58449038886">
    <activity type="home"/>
  </facility>
  <facility id="_24" x="385259.8685912292" y="396022.82784104533">
    <activity type="education"/>
  </facility>
  <facility id="_25" x="383600.40879753104" y="408573.3211204883">
    <activity type="home"/>
  </facility>
  <facility id="_26" x="382551.81951156864" y="389017.3769299906">
    <activity type="education"/>
  </facility>
  <facility id="_27" x="360123.26353882626" y="403983.87234003184">
    <activity type="home"/>
  </facility>
  <facility id="_28" x="389854.25373829564" y="391458.48021019815">
    <activity type="education"/>
  </facility>
  <facility id="_29" x="381851.265566311" y="111934.3809173487">
    <activity type="home"/>
  </facility>
  <facility id="_30" x="357793.2180616666" y="85591.49682420603">
    <activity type="work"/>
  </facility>
  <facility id="_31" x="390113.21323291736" y="120039.1443434571">
    <activity type="home"/>
  </facility>
  <facility id="_32" x="347735.916975165" y="97243.5028136963">
    <activity type="work"/>
  </facility>
  <facility id="_33" x="369509.7418013812" y="524735.0762793632">
    <activity type="home"/>
  </facility>
  <facility id="_34" x="353966.4341421338" y="557264.7922334138">
    <activity type="visit"/>
  </facility>
  <facility id="_35" x="302618.7884544891" y="512586.0263114345">
    <activity type="other"/>
  </facility>
  <facility id="_36" x="365404.02376638335" y="499816.0300132473">
    <activity type="home"/>
  </facility>
  <facility id="_37" x="337446.31838623993" y="492236.73030082183">
    <activity type="escort"/>
  </facility>
  <facility id="_38" x="324145.8434212432" y="490650.41220826225">
    <activity type="work"/>
  </facility>
  <facility id="_39" x="354239.26360516046" y="564251.6187059381">
    <activity type="home"/>
  </facility>
  <facility id="_40" x="312972.7143261582" y="530870.2885835159">
    <activity type="escort"/>
  </facility>
  <facility id="_41" x="356058.8491083652" y="528841.6506583771">
    <activity type="work"/>
  </facility>
  <facility id="_42" x="486991.93335085176" y="249853.33405288684">
    <activity type="home"/>
  </facility>
  <facility id="_43" x="484229.5584134185" y="251672.8710161062">
    <activity type="visit"/>
  </facility>
  <facility id="_44" x="490314.38077720924" y="235981.4225706459">
    <activity type="home"/>
  </facility>
  <facility id="_45" x="490707.28245673474" y="247832.11390012805">
    <activity type="visit"/>
  </facility>
  <facility id="_46" x="478444.9502276733" y="245814.3400291772">
    <activity type="home"/>
  </facility>
  <facility id="_47" x="486358.30774756335" y="249168.88928958838">
    <activity type="visit"/>
  </facility>
  <facility id="_48" x="478916.24601566483" y="240469.09869391058">
    <activity type="home"/>
  </facility>
  <facility id="_49" x="487451.66457444016" y="247561.18646971745">
    <activity type="visit"/>
  </facility>
  <facility id="_50" x="488552.9109880346" y="236530.35532814966">
    <activity type="home"/>
  </facility>
  <facility id="_51" x="487169.34993497364" y="234527.14872948994">
    <activity type="shop"/>
  </facility>
  <facility id="_52" x="489774.1122380215" y="241462.03834468516">
    <activity type="visit"/>
  </facility>
  <facility id="_53" x="483276.7112217932" y="248924.47804808823">
    <activity type="home"/>
  </facility>
  <facility id="_54" x="488992.90409067296" y="243106.0033146017">
    <activity type="other"/>
  </facility>
  <facility id="_55" x="485876.84741255105" y="247710.86793295774">
    <activity type="home"/>
  </facility>
  <facility id="_56" x="492615.16612464504" y="245878.24633069895">
    <activity type="other"/>
  </facility>
  <facility id="_57" x="492851.2017810653" y="252207.03079941878">
    <activity type="home"/>
  </facility>
  <facility id="_58" x="491278.94973353826" y="249244.48466126903">
    <activity type="escort"/>
  </facility>
  <facility id="_59" x="490720.4218449328" y="234353.96054264987">
    <activity type="home"/>
  </facility>
  <facility id="_60" x="485443.13185136835" y="240420.02185239343">
    <activity type="escort"/>
  </facility>
  <facility id="_61" x="490199.9493609698" y="237839.39057813815">
    <activity type="home"/>
  </facility>
  <facility id="_62" x="491330.6652283862" y="248921.59315988346">
    <activity type="work"/>
  </facility>
  <facility id="_63" x="490311.74849188066" y="234061.4963527299">
    <activity type="escort"/>
  </facility>
  <facility id="_64" x="487081.65738640865" y="253143.89152343018">
    <activity type="shop"/>
  </facility>
  <facility id="_65" x="482918.79279679497" y="250576.5389638556">
    <activity type="home"/>
  </facility>
  <facility id="_66" x="489182.99144540005" y="249812.28606586187">
    <activity type="work"/>
  </facility>
  <facility id="_67" x="484246.999054932" y="236710.30908786223">
    <activity type="escort"/>
  </facility>
  <facility id="_68" x="481930.817492834" y="249380.27009313327">
    <activity type="shop"/>
  </facility>
  <facility id="_69" x="479903.15208129154" y="243974.44569877267">
    <activity type="home"/>
  </facility>
  <facility id="_70" x="492065.63993658876" y="236180.94959197962">
    <activity type="visit"/>
  </facility>
  <facility id="_71" x="495246.1249405109" y="249004.96197209498">
    <activity type="escort"/>
  </facility>
  <facility id="_72" x="485730.8942849314" y="234074.66028574939">
    <activity type="home"/>
  </facility>
  <facility id="_73" x="491095.14278641145" y="255450.15542363003">
    <activity type="visit"/>
  </facility>
  <facility id="_74" x="491816.9384304451" y="239425.30540627273">
    <activity type="escort"/>
  </facility>
  <facility id="_75" x="388677.19797656627" y="503123.2115601571">
    <activity type="home"/>
  </facility>
  <facility id="_76" x="425524.6125185487" y="398462.47880231316">
    <activity type="visit"/>
  </facility>
  <facility id="_77" x="461060.6608051612" y="436933.7717262031">
    <activity type="home"/>
  </facility>
  <facility id="_78" x="467221.08582388016" y="408913.63362483715">
    <activity type="visit"/>
  </facility>
  <facility id="_79" x="406230.0898836207" y="335623.08358590334">
    <activity type="home"/>
  </facility>
  <facility id="_80" x="390419.8952406485" y="345884.53424555354">
    <activity type="work"/>
  </facility>
  <facility id="_81" x="387371.73779994616" y="342583.25440586417">
    <activity type="shop"/>
  </facility>
  <facility id="_82" x="432098.2731002682" y="400527.6210250625">
    <activity type="home"/>
  </facility>
  <facility id="_83" x="451944.1634730507" y="409322.1113755375">
    <activity type="shop"/>
  </facility>
  <facility id="_84" x="429567.17893796484" y="387763.5428234639">
    <activity type="other"/>
  </facility>
  <facility id="_85" x="453805.9839152711" y="390989.4482450823">
    <activity type="home"/>
  </facility>
  <facility id="_86" x="447536.5810467067" y="408834.55491887446">
    <activity type="shop"/>
  </facility>
  <facility id="_87" x="438683.51097064425" y="386870.0357919274">
    <activity type="other"/>
  </facility>
  <facility id="_88" x="472043.19291995117" y="404644.92634965613">
    <activity type="home"/>
  </facility>
  <facility id="_89" x="433104.21260875947" y="405372.1652587673">
    <activity type="shop"/>
  </facility>
  <facility id="_90" x="430057.1429709719" y="397657.20685309876">
    <activity type="other"/>
  </facility>
  <facility id="_91" x="434778.2192743823" y="383287.74597487354">
    <activity type="home"/>
  </facility>
  <facility id="_92" x="455742.9029232919" y="395998.6778661413">
    <activity type="education"/>
  </facility>
  <facility id="_93" x="467847.1654216731" y="416430.87554247165">
    <activity type="home"/>
  </facility>
  <facility id="_94" x="472835.997276208" y="411531.728808587">
    <activity type="education"/>
  </facility>
  <facility id="_95" x="464067.3140558246" y="412229.5208689987">
    <activity type="home"/>
  </facility>
  <facility id="_96" x="428609.2816803986" y="393829.67819717113">
    <activity type="education"/>
  </facility>
  <facility id="_97" x="444320.6445885676" y="402262.6432532624">
    <activity type="home"/>
  </facility>
  <facility id="_98" x="456059.3435622495" y="413509.69461705035">
    <activity type="education"/>
  </facility>
  <facility id="_99" x="343124.82234764623" y="325745.9845940301">
    <activity type="home"/>
  </facility>
  <facility id="_100" x="342444.5879680459" y="308137.43129720044">
    <activity type="shop"/>
  </facility>
  <facility id="_101" x="333013.9236013589" y="308436.1438387029">
    <activity type="home"/>
  </facility>
  <facility id="_102" x="339184.2520961726" y="331874.06754165754">
    <activity type="shop"/>
  </facility>
  <facility id="_103" x="351685.3511385663" y="276688.2233594606">
    <activity type="home"/>
  </facility>
  <facility id="_104" x="328388.86728942953" y="335235.63717078697">
    <activity type="shop"/>
  </facility>
  <facility id="_105" x="336674.54290193925" y="316614.8216483515">
    <activity type="home"/>
  </facility>
  <facility id="_106" x="356957.6150155117" y="335995.6910981755">
    <activity type="shop"/>
  </facility>
  <facility id="_107" x="365102.44959252235" y="281521.4227564241">
    <activity type="home"/>
  </facility>
  <facility id="_108" x="347010.91992594296" y="311125.3371072764">
    <activity type="shop"/>
  </facility>
  <facility id="_109" x="364980.9419590825" y="324191.1895445135">
    <activity type="home"/>
  </facility>
  <facility id="_110" x="363303.31411405903" y="273443.8960014575">
    <activity type="work"/>
  </facility>
  <facility id="_111" x="324360.30100133753" y="280774.8889181894">
    <activity type="other"/>
  </facility>
  <facility id="_112" x="377085.80326672527" y="295425.85421894933">
    <activity type="home"/>
  </facility>
  <facility id="_113" x="378375.449358439" y="304575.0360604037">
    <activity type="work"/>
  </facility>
  <facility id="_114" x="374836.09213474364" y="291270.2890840138">
    <activity type="other"/>
  </facility>
  <facility id="_115" x="341260.85978057707" y="334460.74612752465">
    <activity type="home"/>
  </facility>
  <facility id="_116" x="380111.000908819" y="294176.2796343381">
    <activity type="work"/>
  </facility>
  <facility id="_117" x="328707.4078886614" y="320978.773788771">
    <activity type="other"/>
  </facility>
  <facility id="_118" x="370493.1886659424" y="340702.53430668334">
    <activity type="home"/>
  </facility>
  <facility id="_119" x="330298.7681047317" y="283873.51534462377">
    <activity type="work"/>
  </facility>
  <facility id="_120" x="343726.5720186299" y="322171.3753805684">
    <activity type="other"/>
  </facility>
  <facility id="_121" x="331831.4956368053" y="339437.3805961575">
    <activity type="home"/>
  </facility>
  <facility id="_122" x="374524.2157653418" y="309072.3089867056">
    <activity type="work"/>
  </facility>
  <facility id="_123" x="327743.1170129673" y="278533.66652434814">
    <activity type="other"/>
  </facility>
  <facility id="_124" x="353608.32164571586" y="301533.5802492206">
    <activity type="home"/>
  </facility>
  <facility id="_125" x="339638.44664993824" y="294287.29084365506">
    <activity type="other"/>
  </facility>
  <facility id="_126" x="350997.2813361356" y="317113.9690100374">
    <activity type="home"/>
  </facility>
  <facility id="_127" x="329735.1455701997" y="326853.2543383884">
    <activity type="other"/>
  </facility>
  <facility id="_128" x="346876.17614243604" y="332946.5835206037">
    <activity type="shop"/>
  </facility>
  <facility id="_129" x="407458.0009002022" y="297783.9482595108">
    <activity type="home"/>
  </facility>
  <facility id="_130" x="432743.7136779921" y="283716.8775585025">
    <activity type="work"/>
  </facility>
  <facility id="_131" x="384924.6932012128" y="285304.3384202822">
    <activity type="visit"/>
  </facility>
  <facility id="_132" x="391402.6039465092" y="297698.160640456">
    <activity type="home"/>
  </facility>
  <facility id="_133" x="403797.72395468777" y="294936.8321005146">
    <activity type="work"/>
  </facility>
  <facility id="_134" x="406618.982309638" y="355167.33620164095">
    <activity type="visit"/>
  </facility>
  <facility id="_135" x="402525.9604647766" y="293700.3709522961">
    <activity type="home"/>
  </facility>
  <facility id="_136" x="392158.8471670625" y="288247.91591000726">
    <activity type="other"/>
  </facility>
  <facility id="_137" x="391354.9015791943" y="297575.2804954922">
    <activity type="home"/>
  </facility>
  <facility id="_138" x="413924.4129529189" y="277397.6253591524">
    <activity type="other"/>
  </facility>
  <facility id="_139" x="393754.73154739325" y="300808.03157559445">
    <activity type="home"/>
  </facility>
  <facility id="_140" x="406994.806782502" y="280826.1028593085">
    <activity type="other"/>
  </facility>
  <facility id="_141" x="405303.3896752395" y="302939.08738667786">
    <activity type="home"/>
  </facility>
  <facility id="_142" x="409883.4423428247" y="283580.4304223252">
    <activity type="other"/>
  </facility>
  <facility id="_143" x="407638.8283941575" y="296694.23410008405">
    <activity type="home"/>
  </facility>
  <facility id="_144" x="411015.90573026665" y="281800.4434765422">
    <activity type="other"/>
  </facility>
  <facility id="218112" x="553572.3825979703" y="185341.5890619193">
    <activity type="home"/>
  </facility>
  <facility id="17148" x="523731.3954643289" y="185383.8195926402">
    <activity type="medical"/>
  </facility>
  <facility id="510516" x="521895.43842130573" y="188108.36178997403">
    <activity type="home"/>
  </facility>
  <facility id="119246" x="517940.67503267445" y="167312.9242722544">
    <activity type="medical"/>
  </facility>
  <facility id="_145" x="431416.247848595" y="559553.0315121198">
    <activity type="home"/>
  </facility>
  <facility id="_146" x="432252.8342100978" y="556497.1932777377">
    <activity type="education"/>
  </facility>
  <facility id="_147" x="416935.9563782732" y="568245.7457581033">
    <activity type="home"/>
  </facility>
  <facility id="_148" x="425000.90315700613" y="566670.7751183232">
    <activity type="education"/>
  </facility>
  <facility id="_149" x="186537.51946563265" y="50227.58019399191">
    <activity type="home"/>
  </facility>
  <facility id="_150" x="139383.7467556906" y="30561.368464034367">
    <activity type="work"/>
  </facility>
  <facility id="_151" x="176284.52026320033" y="51357.152670519594">
    <activity type="other"/>
  </facility>
  <facility id="397236" x="522580.7382928642" y="164366.7750808359">
    <activity type="home"/>
  </facility>
  <facility id="633444" x="507207.18128250097" y="172896.94692803617">
    <activity type="work"/>
  </facility>
  <facility id="335864" x="512046.51600867556" y="169399.2767687342">
    <activity type="home"/>
  </facility>
  <facility id="164331" x="514267.1659922896" y="169223.87704926124">
    <activity type="other"/>
  </facility>
  <facility id="134534" x="521423.33876413986" y="190617.65788562543">
    <activity type="visit"/>
  </facility>
  <facility id="_152" x="592428.0189905462" y="167099.95097432143">
    <activity type="other"/>
  </facility>
  <facility id="79630" x="512017.93536488886" y="169236.9977893203">
    <activity type="home"/>
  </facility>
  <facility id="163395" x="535357.9503357807" y="159627.45363181503">
    <activity type="other"/>
  </facility>
  <facility id="224427" x="524169.2070782696" y="170179.27496240416">
    <activity type="visit"/>
  </facility>
  <facility id="_153" x="579193.4264660621" y="139830.45066076348">
    <activity type="other"/>
  </facility>
  <facility id="_154" x="605568.3058175582" y="258803.5433489948">
    <activity type="home"/>
  </facility>
  <facility id="_155" x="602652.6547785924" y="247676.17790785152">
    <activity type="other"/>
  </facility>
  <facility id="_156" x="609871.131334416" y="268091.9055282255">
    <activity type="home"/>
  </facility>
  <facility id="_157" x="643367.6890235625" y="284120.5357670373">
    <activity type="other"/>
  </facility>
  <facility id="_158" x="581263.4185660103" y="282107.5600946477">
    <activity type="home"/>
  </facility>
  <facility id="_159" x="639773.2553699213" y="268032.8417077726">
    <activity type="shop"/>
  </facility>
  <facility id="_160" x="607929.1292584697" y="276119.1189188863">
    <activity type="home"/>
  </facility>
  <facility id="_161" x="639495.3117787695" y="259513.55610639194">
    <activity type="shop"/>
  </facility>
  <facility id="_162" x="500859.1616859136" y="170058.53541681176">
    <activity type="home"/>
  </facility>
  <facility id="_163" x="512505.40324825485" y="150673.20651028233">
    <activity type="shop"/>
  </facility>
  <facility id="_164" x="502883.9191840945" y="136122.9384878554">
    <activity type="home"/>
  </facility>
  <facility id="_165" x="509340.4217102883" y="135485.1680573113">
    <activity type="shop"/>
  </facility>
  <facility id="_166" x="533481.1408136273" y="149454.35925132688">
    <activity type="home"/>
  </facility>
  <facility id="_167" x="521271.4357019882" y="149746.0875215411">
    <activity type="work"/>
  </facility>
  <facility id="_168" x="400798.75079761853" y="388049.2216970888">
    <activity type="home"/>
  </facility>
  <facility id="_169" x="436287.512464163" y="337872.29226090346">
    <activity type="education"/>
  </facility>
  <facility id="_170" x="443778.8394950697" y="374406.2570539863">
    <activity type="home"/>
  </facility>
  <facility id="_171" x="430644.27150795277" y="335063.9680525956">
    <activity type="education"/>
  </facility>
  <facility id="_172" x="355350.8935962627" y="406275.5068330033">
    <activity type="home"/>
  </facility>
  <facility id="_173" x="394316.3051093935" y="405342.0679359928">
    <activity type="home"/>
  </facility>
  <facility id="240917" x="555068.4324707385" y="194354.76163977495">
    <activity type="home"/>
  </facility>
  <facility id="375070" x="557020.270325711" y="192542.32130638178">
    <activity type="shop"/>
  </facility>
  <facility id="59716" x="557820.7052825517" y="190274.43795793026">
    <activity type="home"/>
  </facility>
  <facility id="530400" x="556930.9462787735" y="192450.61202513537">
    <activity type="shop"/>
  </facility>
  <facility id="118070" x="556897.1137000439" y="192432.0155190318">
    <activity type="home"/>
  </facility>
  <facility id="60723" x="559642.2978978185" y="187854.17291957105">
    <activity type="work"/>
  </facility>
  <facility id="282278" x="537723.3355480944" y="199996.35225053824">
    <activity type="other"/>
  </facility>
  <facility id="118071" x="556893.4001905628" y="192429.86775384814">
    <activity type="home"/>
  </facility>
  <facility id="123272" x="558997.4690853625" y="188406.93563646404">
    <activity type="work"/>
  </facility>
  <facility id="59700" x="537812.1181998835" y="200152.34281672025">
    <activity type="other"/>
  </facility>
  <facility id="_174" x="380656.52149922453" y="447609.1444169297">
    <activity type="home"/>
  </facility>
  <facility id="_175" x="357714.68195070646" y="464943.67650343664">
    <activity type="visit"/>
  </facility>
  <facility id="_176" x="359284.6584754112" y="455909.6063077301">
    <activity type="escort"/>
  </facility>
  <facility id="_177" x="472271.2435665989" y="171587.51065371922">
    <activity type="home"/>
  </facility>
  <facility id="_178" x="443312.18962561194" y="181645.833574267">
    <activity type="work"/>
  </facility>
  <facility id="_179" x="429791.4354007686" y="181530.8507842492">
    <activity type="shop"/>
  </facility>
  <facility id="_180" x="471771.9130646545" y="171283.97130074273">
    <activity type="home"/>
  </facility>
  <facility id="_181" x="436807.51675612445" y="175538.3282008726">
    <activity type="work"/>
  </facility>
  <facility id="_182" x="444005.06222103414" y="179699.09509287335">
    <activity type="shop"/>
  </facility>
  <facility id="_183" x="480336.79958781274" y="239598.02185122808">
    <activity type="home"/>
  </facility>
  <facility id="_184" x="483910.8106101362" y="239409.84300261943">
    <activity type="shop"/>
  </facility>
  <facility id="_185" x="491747.313256411" y="242168.76178503147">
    <activity type="visit"/>
  </facility>
  <facility id="_186" x="484307.5100724984" y="248441.21932233428">
    <activity type="home"/>
  </facility>
  <facility id="_187" x="488088.41641749645" y="235155.54952433353">
    <activity type="shop"/>
  </facility>
  <facility id="_188" x="488894.6803244268" y="253588.24686280254">
    <activity type="visit"/>
  </facility>
  <facility id="_189" x="489169.5360181146" y="241918.24220129757">
    <activity type="home"/>
  </facility>
  <facility id="_190" x="492331.9098786686" y="254060.43250444086">
    <activity type="visit"/>
  </facility>
  <facility id="_191" x="481305.5975257358" y="239740.33273510594">
    <activity type="home"/>
  </facility>
  <facility id="_192" x="491983.3907212367" y="249048.29669218502">
    <activity type="shop"/>
  </facility>
  <facility id="_193" x="490556.1543364942" y="252389.81682949534">
    <activity type="home"/>
  </facility>
  <facility id="_194" x="488931.0985912962" y="234864.49331327603">
    <activity type="shop"/>
  </facility>
  <facility id="_195" x="491672.1689967745" y="242767.23715346344">
    <activity type="home"/>
  </facility>
  <facility id="_196" x="485383.4843538783" y="252348.50594844474">
    <activity type="other"/>
  </facility>
  <facility id="_197" x="492387.0980139337" y="232713.59550173397">
    <activity type="visit"/>
  </facility>
  <facility id="_198" x="493212.8622865222" y="251025.69801899945">
    <activity type="shop"/>
  </facility>
  <facility id="_199" x="485055.81785710494" y="240311.86997652258">
    <activity type="escort"/>
  </facility>
  <facility id="_200" x="490562.5923374649" y="237109.09058679594">
    <activity type="home"/>
  </facility>
  <facility id="_201" x="489780.13775539835" y="251269.2167213636">
    <activity type="other"/>
  </facility>
  <facility id="_202" x="478473.789700744" y="244535.64427299556">
    <activity type="visit"/>
  </facility>
  <facility id="_203" x="485109.79020839225" y="234200.82621987085">
    <activity type="shop"/>
  </facility>
  <facility id="_204" x="478214.79323159915" y="246493.32376592825">
    <activity type="escort"/>
  </facility>
  <facility id="_205" x="417533.13583643414" y="433064.5594368237">
    <activity type="home"/>
  </facility>
  <facility id="_206" x="410686.29509637586" y="436712.7901558848">
    <activity type="education"/>
  </facility>
  <facility id="_207" x="439677.23639499623" y="414271.03541931737">
    <activity type="home"/>
  </facility>
  <facility id="_208" x="393172.59928270854" y="426698.1716428773">
    <activity type="education"/>
  </facility>
  <facility id="_209" x="408764.3193743496" y="91819.49159210832">
    <activity type="home"/>
  </facility>
  <facility id="_210" x="408245.6634966201" y="96778.70046390608">
    <activity type="education"/>
  </facility>
  <facility id="_211" x="407100.88070825464" y="90428.32165203155">
    <activity type="home"/>
  </facility>
  <facility id="_212" x="405900.3699890662" y="95322.19001227891">
    <activity type="education"/>
  </facility>
  <facility id="_213" x="412176.7486056763" y="91319.82591418314">
    <activity type="home"/>
  </facility>
  <facility id="_214" x="409408.51788150275" y="95673.56499877111">
    <activity type="other"/>
  </facility>
  <facility id="_215" x="415939.8196154831" y="91218.21767658569">
    <activity type="home"/>
  </facility>
  <facility id="_216" x="411147.3435122693" y="95340.49116050084">
    <activity type="other"/>
  </facility>
  <facility id="_217" x="411167.40434231743" y="92815.13262997028">
    <activity type="home"/>
  </facility>
  <facility id="_218" x="407304.8700830655" y="94465.00396858733">
    <activity type="shop"/>
  </facility>
  <facility id="_219" x="406798.33125780814" y="91281.40594909142">
    <activity type="other"/>
  </facility>
  <facility id="_220" x="420179.1637891061" y="406964.03165734775">
    <activity type="home"/>
  </facility>
  <facility id="_221" x="410971.1562729711" y="434631.34890217066">
    <activity type="work"/>
  </facility>
  <facility id="_222" x="404685.430368412" y="439762.8622636085">
    <activity type="other"/>
  </facility>
  <facility id="_223" x="428304.13455378514" y="415205.84874501225">
    <activity type="home"/>
  </facility>
  <facility id="_224" x="435430.3110552215" y="433574.36691974045">
    <activity type="work"/>
  </facility>
  <facility id="_225" x="434634.17858208786" y="428999.8310283439">
    <activity type="other"/>
  </facility>
  <facility id="_226" x="443250.7235325472" y="439407.5049780334">
    <activity type="home"/>
  </facility>
  <facility id="_227" x="439270.1323483905" y="426694.2286463661">
    <activity type="other"/>
  </facility>
  <facility id="_228" x="405071.2402423099" y="421926.79731339565">
    <activity type="home"/>
  </facility>
  <facility id="_229" x="412064.15182378894" y="433153.11249387567">
    <activity type="other"/>
  </facility>
  <facility id="_230" x="403090.6443155555" y="428336.7242875824">
    <activity type="home"/>
  </facility>
  <facility id="_231" x="429228.0439140139" y="427446.7323661462">
    <activity type="shop"/>
  </facility>
  <facility id="_232" x="423908.7859694961" y="412147.9658850436">
    <activity type="other"/>
  </facility>