<?xml version="1.0" encoding="UTF-8"?><!DOCTYPE population SYSTEM "http://matsim.org/files/dtd/population_v5.dtd"><population>
  <!--NTS london prelim 24nov2020 epsg27700-->
  <!--Created 2022-04-29 19:01:31.643803-->
  <person id="2_1_0">
    <plan selected="yes">
      <act type="home" x="436102.07897268864" y="281164.3629264452" end_time="13:53:00"/>
      <leg mode="car" trav_time="00:03:00"/>
      <act type="work" x="410475.6722157046" y="428677.8276000909" end_time="22:00:00"/>
      <leg mode="car" trav_time="00:05:00"/>
      <act type="home" x="408968.09736933355" y="439535.97042146046"/>
    </plan>
  </person>
  <person id="1_2_0">
    <plan selected="yes">
      <act type="home" x="421119.85891571647" y="280820.09943612537" end_time="11:15:00"/>
      <leg mode="car" trav_time="00:08:00"/>
      <act type="visit" x="391633.24597866373" y="430524.75917260704" end_time="12:00:00"/>
      <leg mode="car" trav_time="00:15:00"/>
      <act type="other" x="449505.0477040898" y="415763.66873705207" end_time="12:50:00"/>
      <leg mode="car" trav_time="00:10:00"/>
      <act type="visit" x="406885.33584890113" y="424730.8282329819" end_time="18:30:00"/>
      <leg mode="car" trav_time="00:20:00"/>
      <act type="home" x="441107.7408622595" y="440552.7631016294"/>
    </plan>
  </person>
  <person id="2_2_0">
    <plan selected="yes">
      <act type="home" x="421119.85891571647" y="280820.09943612537" end_time="11:15:00"/>
      <leg mode="car" trav_time="00:08:00"/>
      <act type="visit" x="413807.3474815309" y="438566.3304347907" end_time="12:00:00"/>
      <leg mode="car" trav_time="00:15:00"/>
      <act type="other" x="415934.1774083596" y="441491.14970042295" end_time="12:50:00"/>
      <leg mode="car" trav_time="00:10:00"/>
      <act type="visit" x="400951.5289110376" y="430183.7598167649" end_time="18:30:00"/>
      <leg mode="car" trav_time="00:20:00"/>
      <act type="home" x="403384.37607419636" y="441468.59918008884"/>
    </plan>
  </person>
  <person id="3_2_0">
    <plan selected="yes">
      <act type="home" x="421119.85891571647" y="280820.09943612537" end_time="11:15:00"/>
      <leg mode="car" trav_time="00:08:00"/>
      <act type="visit" x="399351.05929974717" y="422166.55771410646" end_time="12:00:00"/>
      <leg mode="car" trav_time="00:15:00"/>
      <act type="other" x="412230.03707841283" y="417676.91636145744" end_time="12:50:00"/>
      <leg mode="car" trav_time="00:10:00"/>
      <act type="visit" x="418793.9039285797" y="426894.48686147446" end_time="18:30:00"/>
      <leg mode="car" trav_time="00:20:00"/>
      <act type="home" x="417039.5243282025" y="412882.5299451322"/>
    </plan>
  </person>
  <person id="4_2_0">
    <plan selected="yes">
      <act type="home" x="421119.85891571647" y="280820.09943612537" end_time="11:15:00"/>
      <leg mode="car" trav_time="00:08:00"/>
      <act type="visit" x="398850.0341449986" y="438950.70189827133" end_time="12:00:00"/>
      <leg mode="car" trav_time="00:15:00"/>
      <act type="other" x="443824.38305017946" y="422688.7866237122" end_time="12:50:00"/>
      <leg mode="car" trav_time="00:10:00"/>
      <act type="visit" x="443462.0233795425" y="418768.5687506454" end_time="18:30:00"/>
      <leg mode="car" trav_time="00:20:00"/>
      <act type="home" x="421725.1287157398" y="441309.38717869046"/>
    </plan>
  </person>
  <person id="1_2_1">
    <plan selected="yes">
      <act type="home" x="409628.3715098152" y="282247.19702280586" end_time="11:15:00"/>
      <leg mode="car" trav_time="00:08:00"/>
      <act type="visit" x="404229.7539850951" y="429534.50920265325" end_time="12:00:00"/>
      <leg mode="car" trav_time="00:15:00"/>
      <act type="other" x="436908.34859169065" y="431951.8376991413" end_time="12:50:00"/>
      <leg mode="car" trav_time="00:10:00"/>
      <act type="visit" x="441278.0808547742" y="449362.7461364167" end_time="18:30:00"/>
      <leg mode="car" trav_time="00:20:00"/>
      <act type="home" x="443354.8792596695" y="427580.40616888215"/>
    </plan>
  </person>
  <person id="2_2_1">
    <plan selected="yes">
      <act type="home" x="409628.3715098152" y="282247.19702280586" end_time="11:15:00"/>
      <leg mode="car" trav_time="00:08:00"/>
      <act type="visit" x="438243.22356621" y="412246.4311727089" end_time="12:00:00"/>
      <leg mode="car" trav_time="00:15:00"/>
      <act type="other" x="436398.20834111964" y="431355.948016108" end_time="12:50:00"/>
      <leg mode="car" trav_time="00:10:00"/>
      <act type="visit" x="407630.1222179746" y="425115.22667484416" end_time="18:30:00"/>
      <leg mode="car" trav_time="00:20:00"/>
      <act type="home" x="411513.7807859494" y="436803.70236433146"/>
    </plan>
  </person>
  <person id="3_2_1">
    <plan selected="yes">
      <act type="home" x="409628.3715098152" y="282247.19702280586" end_time="11:15:00"/>
      <leg mode="car" trav_time="00:08:00"/>
      <act type="visit" x="418502.0695453336" y="409231.429898615" end_time="12:00:00"/>
      <leg mode="car" trav_time="00:15:00"/>
      <act type="other" x="400667.0125332807" y="424145.85962221224" end_time="12:50:00"/>
      <leg mode="car" trav_time="00:10:00"/>
      <act type="visit" x="410092.15981659497" y="408772.2957459267" end_time="18:30:00"/>
      <leg mode="car" trav_time="00:20:00"/>
      <act type="home" x="438166.9547094142" y="442227.9617277758"/>
    </plan>
  </person>
  <person id="4_2_1">
    <plan selected="yes">
      <act type="home" x="409628.3715098152" y="282247.19702280586" end_time="11:15:00"/>
      <leg mode="car" trav_time="00:08:00"/>
      <act type="visit" x="439814.1180709214" y="436509.4693870448" end_time="12:00:00"/>
      <leg mode="car" trav_time="00:15:00"/>
      <act type="other" x="406673.71898624016" y="428667.1707901598" end_time="12:50:00"/>
      <leg mode="car" trav_time="00:10:00"/>
      <act type="visit" x="411887.5850415711" y="415707.4181763033" end_time="18:30:00"/>
      <leg mode="car" trav_time="00:20:00"/>
      <act type="home" x="423202.2458533374" y="436935.74260489503"/>
    </plan>
  </person>
  <person id="1_3_0">
    <plan selected="yes">
      <act type="home" x="421514.7041957696" y="275169.72682868043" end_time="12:40:00"/>
      <leg mode="car" trav_time="00:10:00"/>
      <act type="visit" x="401380.72715194913" y="439722.48067750345" end_time="13:10:00"/>
      <leg mode="car" trav_time="00:15:00"/>
      <act type="visit" x="406316.6063004046" y="430242.0926265596" end_time="13:30:00"/>
      <leg mode="car" trav_time="00:15:00"/>
      <act type="other" x="404350.6623743382" y="421480.2212248239" end_time="14:05:00"/>
      <leg mode="car" trav_time="00:07:00"/>
      <act type="other" x="402657.3131583315" y="446868.7044111506" end_time="14:25:00"/>
      <leg mode="car" trav_time="00:08:00"/>
      <act type="visit" x="405588.7564302055" y="411094.8200360209" end_time="15:08:00"/>
      <leg mode="car" trav_time="00:06:00"/>
      <act type="escort" x="436342.09304614103" y="427938.53721367236" end_time="15:22:00"/>
      <leg mode="car" trav_time="00:04:00"/>
      <act type="home" x="426852.25826933596" y="436348.4048208881" end_time="15:40:00"/>
      <leg mode="car" trav_time="00:15:00"/>
      <act type="shop" x="400309.8416004045" y="421780.5078121386" end_time="16:55:00"/>
      <leg mode="car" trav_time="00:17:00"/>
      <act type="visit" x="435015.20379641803" y="442040.591618754" end_time="18:00:00"/>
      <leg mode="car" trav_time="00:28:00"/>
      <act type="home" x="428681.6975750117" y="428034.0166354915"/>
    </plan>
  </person>
  <person id="2_3_0">
    <plan selected="yes">
      <act type="home" x="421514.7041957696" y="275169.72682868043" end_time="08:50:00"/>
      <leg mode="car" trav_time="00:05:00"/>
      <act type="escort" x="449840.51379879285" y="420905.1714564872" end_time="21:05:00"/>
      <leg mode="car" trav_time="00:07:00"/>
      <act type="other" x="444202.93825272314" y="438127.2620872782"/>
    </plan>
  </person>
  <person id="3_3_0">
    <plan selected="yes">
      <act type="home" x="421514.7041957696" y="275169.72682868043" end_time="08:50:00"/>
      <leg mode="car" trav_time="00:05:00"/>
      <act type="education" x="443194.8774437434" y="441966.73047145427" end_time="15:22:00"/>
      <leg mode="car" trav_time="00:04:00"/>
      <act type="home" x="409697.5579665904" y="424551.5070546599" end_time="15:40:00"/>
      <leg mode="car" trav_time="00:15:00"/>
      <act type="shop" x="430299.03488408594" y="436829.88947253994" end_time="16:55:00"/>
      <leg mode="car" trav_time="00:17:00"/>
      <act type="visit" x="402228.6429613801" y="411681.5088135915" end_time="18:00:00"/>
      <leg mode="car" trav_time="00:28:00"/>
      <act type="home" x="431457.28053532366" y="442443.1639722177"/>
    </plan>
  </person>
  <person id="4_3_0">
    <plan selected="yes">
      <act type="home" x="421514.7041957696" y="275169.72682868043" end_time="12:40:00"/>
      <leg mode="car" trav_time="00:10:00"/>
      <act type="visit" x="404834.1294809854" y="429013.98420076235" end_time="13:10:00"/>
      <leg mode="car" trav_time="00:15:00"/>
      <act type="visit" x="401768.5416642445" y="429882.5987471817" end_time="13:30:00"/>
      <leg mode="car" trav_time="00:15:00"/>
      <act type="other" x="392838.52442183817" y="433956.9019403855" end_time="14:05:00"/>
      <leg mode="car" trav_time="00:07:00"/>
      <act type="other" x="420644.5900811504" y="433577.3748752482" end_time="14:25:00"/>
      <leg mode="car" trav_time="00:08:00"/>
      <act type="visit" x="415297.832307202" y="445555.4559633881" end_time="15:08:00"/>
      <leg mode="car" trav_time="00:06:00"/>
      <act type="escort" x="415311.76158928196" y="425001.8702246243" end_time="15:22:00"/>
      <leg mode="car" trav_time="00:04:00"/>
      <act type="home" x="395635.7550976796" y="433380.28569907264" end_time="15:40:00"/>
      <leg mode="car" trav_time="00:15:00"/>
      <act type="shop" x="423609.260050291" y="419878.17987353005" end_time="16:55:00"/>
      <leg mode="car" trav_time="00:17:00"/>
      <act type="visit" x="413940.75578223716" y="439950.30376020836" end_time="18:00:00"/>
      <leg mode="car" trav_time="00:28:00"/>
      <act type="home" x="434731.9235287824" y="418576.8765861103"/>
    </plan>
  </person>
  <person id="1_3_1">
    <plan selected="yes">
      <act type="home" x="437280.98258518253" y="277747.15585316153" end_time="12:40:00"/>
      <leg mode="car" trav_time="00:10:00"/>
      <act type="visit" x="444160.573640444" y="410745.2318946571" end_time="13:10:00"/>
      <leg mode="car" trav_time="00:15:00"/>
      <act type="visit" x="393925.1537891223" y="434786.93348178716" end_time="13:30:00"/>
      <leg mode="car" trav_time="00:15:00"/>
      <act type="other" x="412634.9963331936" y="432735.0290934229" end_time="14:05:00"/>
      <leg mode="car" trav_time="00:07:00"/>
      <act type="other" x="423252.126210908" y="412645.80465595063" end_time="14:25:00"/>
      <leg mode="car" trav_time="00:08:00"/>
      <act type="visit" x="438894.6142391268" y="444381.64039805974" end_time="15:08:00"/>
      <leg mode="car" trav_time="00:06:00"/>
      <act type="escort" x="415907.6652056776" y="421442.11749112455" end_time="15:22:00"/>
      <leg mode="car" trav_time="00:04:00"/>
      <act type="home" x="412007.98200765764" y="447950.41442657524" end_time="15:40:00"/>
      <leg mode="car" trav_time="00:15:00"/>
      <act type="shop" x="447400.9469386245" y="414573.36985596013" end_time="16:55:00"/>
      <leg mode="car" trav_time="00:17:00"/>
      <act type="visit" x="428619.80977821315" y="440158.39609769615" end_time="18:00:00"/>
      <leg mode="car" trav_time="00:28:00"/>
      <act type="home" x="443628.02022838383" y="430516.3205827223"/>
    </plan>
  </person>
  <person id="2_3_1">
    <plan selected="yes">
      <act type="home" x="437280.98258518253" y="277747.15585316153" end_time="08:50:00"/>
      <leg mode="car" trav_time="00:05:00"/>
      <act type="escort" x="398215.71981283085" y="420680.5995375903" end_time="21:05:00"/>
      <leg mode="car" trav_time="00:07:00"/>
      <act type="other" x="410227.57327016385" y="439247.5923100599"/>
    </plan>
  </person>
  <person id="3_3_1">
    <plan selected="yes">
      <act type="home" x="437280.98258518253" y="277747.15585316153" end_time="08:50:00"/>
      <leg mode="car" trav_time="00:05:00"/>
      <act type="education" x="418331.2690828677" y="433110.9807236086" end_time="15:22:00"/>
      <leg mode="car" trav_time="00:04:00"/>
      <act type="home" x="429026.9790491861" y="437364.27146901254" end_time="15:40:00"/>
      <leg mode="car" trav_time="00:15:00"/>
      <act type="shop" x="424851.2938586323" y="438443.24905956275" end_time="16:55:00"/>
      <leg mode="car" trav_time="00:17:00"/>
      <act type="visit" x="443571.33947461215" y="413959.6977032442" end_time="18:00:00"/>
      <leg mode="car" trav_time="00:28:00"/>
      <act type="home" x="410652.003742105" y="424902.97187080776"/>
    </plan>
  </person>
  <person id="4_3_1">
    <plan selected="yes">
      <act type="home" x="437280.98258518253" y="277747.15585316153" end_time="12:40:00"/>
      <leg mode="car" trav_time="00:10:00"/>
      <act type="visit" x="392002.4711779311" y="427003.1629848245" end_time="13:10:00"/>
      <leg mode="car" trav_time="00:15:00"/>
      <act type="visit" x="394996.4435998212" y="421475.8567638354" end_time="13:30:00"/>
      <leg mode="car" trav_time="00:15:00"/>
      <act type="other" x="443696.3631736231" y="417108.6807138498" end_time="14:05:00"/>
      <leg mode="car" trav_time="00:07:00"/>
      <act type="other" x="425823.12768470694" y="429349.57170974615" end_time="14:25:00"/>
      <leg mode="car" trav_time="00:08:00"/>
      <act type="visit" x="432114.54025701515" y="418147.32299901766" end_time="15:08:00"/>
      <leg mode="car" trav_time="00:06:00"/>
      <act type="escort" x="397439.11404408654" y="420921.08846565004" end_time="15:22:00"/>
      <leg mode="car" trav_time="00:04:00"/>
      <act type="home" x="425498.53748273855" y="410259.3509673307" end_time="15:40:00"/>
      <leg mode="car" trav_time="00:15:00"/>
      <act type="shop" x="403617.0631819512" y="446886.02796558157" end_time="16:55:00"/>
      <leg mode="car" trav_time="00:17:00"/>
      <act type="visit" x="440603.6610827406" y="446752.5042043611" end_time="18:00:00"/>
      <leg mode="car" trav_time="00:28:00"/>
      <act type="home" x="432867.65309345804" y="428654.17384038924"/>
    </plan>
  </person>
  <person id="2_4_0">
    <plan selected="yes">
      <act type="home" x="406830.9758751194" y="283554.25042485015" end_time="16:00:00"/>
      <leg mode="car" trav_time="00:02:00"/>
      <act type="shop" x="435971.3454631079" y="439621.737827342" end_time="16:10:00"/>
      <leg mode="car" trav_time="00:02:00"/>
      <act type="home" x="441645.69470037083" y="412670.61636370735" end_time="17:55:00"/>
      <leg mode="car" trav_time="00:03:00"/>
      <act type="work" x="397859.44211567024" y="433321.4738117572"/>
    </plan>
  </person>
  <person id="1_5_0">
    <plan selected="yes">
      <act type="home" x="396554.9047546241" y="283602.80709885724" end_time="12:50:00"/>
      <leg mode="car" trav_time="00:15:00"/>
      <act type="other" x="424521.0238103393" y="442620.7753527892" end_time="15:05:00"/>
      <leg mode="car" trav_time="00:12:00"/>
      <act type="home" x="409561.88296423387" y="436834.52078734763"/>
    </plan>
  </person>
  <person id="2_5_0">
    <plan selected="yes">
      <act type="work" x="403436.08965978806" y="292277.1880817708" end_time="06:00:00"/>
      <leg mode="car" trav_time="00:03:00"/>
      <act type="home" x="414366.06263802" y="411334.7264589626" end_time="12:50:00"/>
      <leg mode="car" trav_time="00:15:00"/>
      <act type="other" x="443395.41604276205" y="448737.3018713841" end_time="15:05:00"/>
      <leg mode="car" trav_time="00:12:00"/>
      <act type="home" x="430648.82053857454" y="426286.5345723885" end_time="17:55:00"/>
      <leg mode="car" trav_time="00:05:00"/>
      <act type="work" x="410613.30497605243" y="404799.70479130256"/>
    </plan>
  </person>
  <person id="3_5_0">
    <plan selected="yes">
      <act type="home" x="396554.9047546241" y="283602.80709885724" end_time="12:50:00"/>
      <leg mode="car" trav_time="00:15:00"/>
      <act type="other" x="432192.29299500264" y="414415.14784050937" end_time="15:05:00"/>
      <leg mode="car" trav_time="00:12:00"/>
      <act type="home" x="423941.43428232503" y="442474.5681966799"/>
    </plan>
  </person>
  <person id="4_5_0">
    <plan selected="yes">
      <act type="home" x="396554.9047546241" y="283602.80709885724" end_time="12:50:00"/>
      <leg mode="car" trav_time="00:15:00"/>
      <act type="other" x="398008.5979187299" y="416588.6827667168" end_time="15:05:00"/>
      <leg mode="car" trav_time="00:12:00"/>
      <act type="home" x="439471.0684173902" y="442912.12933816464"/>
    </plan>
  </person>
  <person id="1_5_1">
    <plan selected="yes">
      <act type="home" x="413171.8873778416" y="283039.44122400065" end_time="12:50:00"/>
      <leg mode="car" trav_time="00:15:00"/>
      <act type="other" x="415099.31856448844" y="434476.17397537606" end_time="15:05:00"/>
      <leg mode="car" trav_time="00:12:00"/>
      <act type="home" x="412664.65021890163" y="405607.88750200183"/>
    </plan>
  </person>
  <person id="2_5_1">
    <plan selected="yes">
      <act type="work" x="408233.8541206792" y="285482.63541207224" end_time="06:00:00"/>
      <leg mode="car" trav_time="00:03:00"/>
      <act type="home" x="406372.28303586756" y="437675.9028897228" end_time="12:50:00"/>
      <leg mode="car" trav_time="00:15:00"/>
      <act type="other" x="407657.3272039821" y="438897.1416228586" end_time="15:05:00"/>
      <leg mode="car" trav_time="00:12:00"/>
      <act type="home" x="418530.0860345563" y="407625.94748559984" end_time="17:55:00"/>
      <leg mode="car" trav_time="00:05:00"/>
      <act type="work" x="439866.30314891384" y="413614.89089974447"/>
    </plan>
  </person>
  <person id="3_5_1">
    <plan selected="yes">
      <act type="home" x="413171.8873778416" y="283039.44122400065" end_time="12:50:00"/>
      <leg mode="car" trav_time="00:15:00"/>
      <act type="other" x="410567.267870328" y="448953.5993246129" end_time="15:05:00"/>
      <leg mode="car" trav_time="00:12:00"/>
      <act type="home" x="399560.34205786744" y="441443.34903033054"/>
    </plan>
  </person>
  <person id="4_5_1">
    <plan selected="yes">
      <act type="home" x="413171.8873778416" y="283039.44122400065" end_time="12:50:00"/>
      <leg mode="car" trav_time="00:15:00"/>
      <act type="other" x="444348.00672127795" y="427402.45289583603" end_time="15:05:00"/>
      <leg mode="car" trav_time="00:12:00"/>
      <act type="home" x="425911.8735808694" y="438922.0380230817"/>
    </plan>
  </person>
  <person id="1_6_0">
    <plan selected="yes">
      <act type="home" x="396264.05703789694" y="292784.42362387275" end_time="12:18:00"/>
      <leg mode="car" trav_time="00:14:00"/>
      <act type="escort" x="409570.75883907836" y="429383.7569041589" end_time="12:35:00"/>
      <leg mode="car" trav_time="00:06:00"/>
      <act type="work" x="410978.4422007196" y="424549.5691403932" end_time="17:30:00"/>
      <leg mode="car" trav_time="00:26:00"/>
      <act type="home" x="440182.8077893745" y="418484.63795444235" end_time="20:20:00"/>
      <leg mode="car" trav_time="00:03:00"/>
      <act type="other" x="399894.0527154679" y="428066.1604986078" end_time="21:10:00"/>
      <leg mode="car" trav_time="00:05:00"/>
      <act type="home" x="390494.7606141957" y="423649.80915877526"/>
    </plan>
  </person>
  <person id="2_6_0">
    <plan selected="yes">
      <act type="work" x="401417.4441317295" y="280946.31429856457" end_time="05:50:00"/>
      <leg mode="car" trav_time="00:05:00"/>
      <act type="home" x="412028.91672340524" y="409087.10742600483" end_time="14:35:00"/>
      <leg mode="car" trav_time="00:15:00"/>
      <act type="escort" x="428927.5314334369" y="417116.79673645855" end_time="14:58:00"/>
      <leg mode="car" trav_time="00:14:00"/>
      <act type="escort" x="421971.72670228034" y="421217.92132027895" end_time="15:22:00"/>
      <leg mode="car" trav_time="00:09:00"/>
      <act type="home" x="415600.5465898308" y="446709.41575723095" end_time="21:50:00"/>
      <leg mode="car" trav_time="00:06:00"/>
      <act type="work" x="410978.4422007196" y="424549.5691403932"/>
    </plan>
  </person>
  <person id="3_6_0">
    <plan selected="yes">
      <act type="education" x="415735.0717203114" y="280467.4846510571" end_time="15:22:00"/>
      <leg mode="car" trav_time="00:09:00"/>
      <act type="home" x="424761.1614714568" y="426901.28285909636"/>
    </plan>
  </person>
  <person id="4_6_0">
    <plan selected="yes">
      <act type="home" x="396264.05703789694" y="292784.42362387275" end_time="12:18:00"/>
      <leg mode="car" trav_time="00:14:00"/>
      <act type="visit" x="422127.19180187106" y="422220.1199908836" end_time="14:58:00"/>
      <leg mode="car" trav_time="00:14:00"/>
      <act type="escort" x="415801.16512293473" y="443388.4572061849" end_time="15:22:00"/>
      <leg mode="car" trav_time="00:09:00"/>
      <act type="home" x="444464.80210772896" y="433401.27841068583"/>
    </plan>
  </person>
  <person id="1_6_1">
    <plan selected="yes">
      <act type="home" x="409825.2446206682" y="281563.3056714858" end_time="12:18:00"/>
      <leg mode="car" trav_time="00:14:00"/>
      <act type="escort" x="418548.4895651863" y="444345.0179351244" end_time="12:35:00"/>
      <leg mode="car" trav_time="00:06:00"/>
      <act type="work" x="403058.84470031556" y="411866.8475431302" end_time="17:30:00"/>
      <leg mode="car" trav_time="00:26:00"/>
      <act type="home" x="433790.32713845506" y="444028.3730933777" end_time="20:20:00"/>
      <leg mode="car" trav_time="00:03:00"/>
      <act type="other" x="442728.7968002114" y="436790.17206598783" end_time="21:10:00"/>
      <leg mode="car" trav_time="00:05:00"/>
      <act type="home" x="403851.65534602024" y="436873.44155838765"/>
    </plan>
  </person>
  <person id="2_6_1">
    <plan selected="yes">
      <act type="work" x="390577.231103005" y="301651.7772713833" end_time="05:50:00"/>
      <leg mode="car" trav_time="00:05:00"/>
      <act type="home" x="425686.0025576246" y="445455.9060600399" end_time="14:35:00"/>
      <leg mode="car" trav_time="00:15:00"/>
      <act type="escort" x="419039.1677707275" y="429980.67778423044" end_time="14:58:00"/>
      <leg mode="car" trav_time="00:14:00"/>
      <act type="escort" x="443336.80367082724" y="428566.90168824134" end_time="15:22:00"/>
      <leg mode="car" trav_time="00:09:00"/>
      <act type="home" x="433405.6560474999" y="411976.8681575597" end_time="21:50:00"/>
      <leg mode="car" trav_time="00:06:00"/>
      <act type="work" x="403058.84470031556" y="411866.8475431302"/>
    </plan>
  </person>
  <person id="3_6_1">
    <plan selected="yes">
      <act type="education" x="404033.6427044657" y="277360.7167209253" end_time="15:22:00"/>
      <leg mode="car" trav_time="00:09:00"/>
      <act type="home" x="406851.8923056533" y="415486.6577961957"/>
    </plan>
  </person>
  <person id="4_6_1">
    <plan selected="yes">
      <act type="home" x="409825.2446206682" y="281563.3056714858" end_time="12:18:00"/>
      <leg mode="car" trav_time="00:14:00"/>
      <act type="visit" x="431690.81336029177" y="437611.5709250658" end_time="14:58:00"/>
      <leg mode="car" trav_time="00:14:00"/>
      <act type="escort" x="414699.95456153026" y="417035.4211558268" end_time="15:22:00"/>
      <leg mode="car" trav_time="00:09:00"/>
      <act type="home" x="420182.9045209315" y="407764.1328116243"/>
    </plan>
  </person>
  <person id="1_7_0">
    <plan selected="yes">
      <act type="home" x="409370.1271984196" y="289870.2030136133" end_time="08:45:00"/>
      <leg mode="walk" trav_time="00:15:00"/>
      <act type="escort" x="435647.6086196827" y="434680.02895718766" end_time="09:06:00"/>
      <leg mode="walk" trav_time="00:10:00"/>
      <act type="home" x="407568.45372829406" y="417149.70945206383" end_time="12:25:00"/>
      <leg mode="car" trav_time="00:15:00"/>
      <act type="escort" x="410341.80638668843" y="417158.0150952793" end_time="12:44:00"/>
      <leg mode="car" trav_time="00:10:00"/>
      <act type="work" x="435966.45319797314" y="421888.6083901706" end_time="17:40:00"/>
      <leg mode="car" trav_time="00:16:00"/>
      <act type="visit" x="422212.14924051566" y="437335.2756016963" end_time="18:30:00"/>
      <leg mode="car" trav_time="00:17:00"/>
      <act type="home" x="414107.00536140875" y="419366.37860989996"/>
    </plan>
  </person>
  <person id="2_7_0">
    <plan selected="yes">
      <act type="work" x="403411.14985189115" y="295035.3508417412" end_time="05:45:00"/>
      <leg mode="car" trav_time="00:03:00"/>
      <act type="home" x="442562.93128667824" y="446782.9280670541" end_time="14:30:00"/>
      <leg mode="car" trav_time="00:17:00"/>
      <act type="escort" x="407594.6991809431" y="430674.39595354116" end_time="15:00:00"/>
      <leg mode="car" trav_time="00:15:00"/>
      <act type="escort" x="406542.6544364164" y="449213.4382756577" end_time="15:23:00"/>
      <leg mode="car" trav_time="00:10:00"/>
      <act type="home" x="403182.6392134798" y="439596.58794272144" end_time="21:51:00"/>
      <leg mode="car" trav_time="00:03:00"/>
      <act type="work" x="435966.45319797314" y="421888.6083901706"/>
    </plan>
  </person>
  <person id="3_7_0">
    <plan selected="yes">
      <act type="home" x="409370.1271984196" y="289870.2030136133" end_time="08:45:00"/>
      <leg mode="walk" trav_time="00:15:00"/>
      <act type="education" x="408265.2109475977" y="429499.333188106" end_time="15:23:00"/>
      <leg mode="car" trav_time="00:10:00"/>
      <act type="home" x="414393.27773149026" y="442035.1230666735"/>
    </plan>
  </person>
  <person id="4_7_0">
    <plan selected="yes">
      <act type="home" x="409370.1271984196" y="289870.2030136133" end_time="12:25:00"/>
      <leg mode="car" trav_time="00:15:00"/>
      <act type="visit" x="394923.2721535076" y="432648.0653654995" end_time="15:00:00"/>
      <leg mode="car" trav_time="00:15:00"/>
      <act type="escort" x="446516.48611340014" y="416370.91642008943" end_time="15:23:00"/>
      <leg mode="car" trav_time="00:10:00"/>
      <act type="home" x="398331.0457254533" y="438232.673018385"/>
    </plan>
  </person>
  <person id="1_7_1">
    <plan selected="yes">
      <act type="home" x="426694.6593909302" y="277143.3875170141" end_time="08:45:00"/>
      <leg mode="walk" trav_time="00:15:00"/>
      <act type="escort" x="408919.322816556" y="410317.1014154248" end_time="09:06:00"/>
      <leg mode="walk" trav_time="00:10:00"/>
      <act type="home" x="411251.3839181882" y="438646.7002268502" end_time="12:25:00"/>
      <leg mode="car" trav_time="00:15:00"/>
      <act type="escort" x="408242.4855467321" y="446535.52611730876" end_time="12:44:00"/>
      <leg mode="car" trav_time="00:10:00"/>
      <act type="work" x="416981.750240148" y="426323.5466391507" end_time="17:40:00"/>
      <leg mode="car" trav_time="00:16:00"/>
      <act type="visit" x="416055.1692399262" y="414383.00200091844" end_time="18:30:00"/>
      <leg mode="car" trav_time="00:17:00"/>
      <act type="home" x="437716.3524007156" y="419610.76301080716"/>
    </plan>
  </person>
  <person id="2_7_1">
    <plan selected="yes">
      <act type="work" x="405852.2957267769" y="302994.41491975257" end_time="05:45:00"/>
      <leg mode="car" trav_time="00:03:00"/>
      <act type="home" x="417049.81473203865" y="422426.0003566697" end_time="14:30:00"/>
      <leg mode="car" trav_time="00:17:00"/>
      <act type="escort" x="438475.76854762126" y="415683.7425198699" end_time="15:00:00"/>
      <leg mode="car" trav_time="00:15:00"/>
      <act type="escort" x="405810.9156789922" y="416421.8389299478" end_time="15:23:00"/>
      <leg mode="car" trav_time="00:10:00"/>
      <act type="home" x="406197.6025092004" y="416981.67063122324" end_time="21:51:00"/>
      <leg mode="car" trav_time="00:03:00"/>
      <act type="work" x="416981.750240148" y="426323.5466391507"/>
    </plan>
  </person>
  <person id="3_7_1">
    <plan selected="yes">
      <act type="home" x="426694.6593909302" y="277143.3875170141" end_time="08:45:00"/>
      <leg mode="walk" trav_time="00:15:00"/>
      <act type="education" x="439218.69937020494" y="433446.1996030984" end_time="15:23:00"/>
      <leg mode="car" trav_time="00:10:00"/>
      <act type="home" x="436089.1812409718" y="435671.7198862714"/>
    </plan>
  </person>
  <person id="4_7_1">
    <plan selected="yes">
      <act type="home" x="426694.6593909302" y="277143.3875170141" end_time="12:25:00"/>
      <leg mode="car" trav_time="00:15:00"/>
      <act type="visit" x="393046.7155512178" y="427009.7962365674" end_time="15:00:00"/>
      <leg mode="car" trav_time="00:15:00"/>
      <act type="escort" x="422477.29934197303" y="439748.6200796773" end_time="15:23:00"/>
      <leg mode="car" trav_time="00:10:00"/>
      <act type="home" x="435311.98161338456" y="415997.7630277119"/>
    </plan>
  </person>
  <person id="5_1_0">
    <plan selected="yes">
      <act type="home" x="431927.5757164163" y="284321.45695554407" end_time="14:05:00"/>
      <leg mode="car" trav_time="00:10:00"/>
      <act type="medical" x="397836.67185283214" y="435824.9280140605" end_time="16:30:00"/>
      <leg mode="car" trav_time="00:30:00"/>
      <act type="home" x="410202.20000763185" y="430909.14553769375"/>
    </plan>
  </person>
  <person id="5_1_1">
    <plan selected="yes">
      <act type="home" x="430627.0204223783" y="280395.2397691844" end_time="14:05:00"/>
      <leg mode="car" trav_time="00:10:00"/>