<?xml version="1.0" encoding="UTF-8"?><!DOCTYPE population SYSTEM "http://matsim.org/files/dtd/population_v5.dtd">

<population>

    <person id="Eddy">
		<attributes>
			<attribute name="subpopulation" class="java.lang.String">evs</attribute>
            <attribute name="vehicles" class="org.matsim.vehicles.PersonVehicles">{"car": "Eddy"}</attribute>
		</attributes>
        <plan selected="yes">
            <activity end_time="07:24:52" type="home" x="515226" y="188222"/>
            <leg mode="car"/>
            <activity end_time="14:50:52" type="work" x="529652" y="183897"/>
            <leg mode="car"/>
            <activity type="home" x="515226" y="188222"/>
        </plan>
    </person>

    <person id="Stevie">
		<attributes>
			<attribute name="subpopulation" class="java.lang.String">default</attribute>
            <attribute name="vehicles" class="org.matsim.vehicles.PersonVehicles">{"car": "Stevie"}</attribute>
		</attributes>
        <plan selected="yes">
            <activity end_time="07:24:52" type="home" x="515226" y="188222"/>
            <leg mode="car"/>
            <activity end_time="14:50:52" type="work" x="529652" y="183897"/>
            <leg mode="car"/>
            <activity type="home" x="515226" y="188222"/>
        </plan>
    </person>

    <person id="Vladya">
    	<attributes>
			<attribute name="subpopulation" class="java.lang.String">default</attribute>
            <attribute name="vehicles" class="org.matsim.vehicles.PersonVehicles">{"car": "Vladya"}</attribute>
		</attributes>
        <plan selected="yes">
            <activity end_time="07:24:52" type="home" x="515226" y="188222"/>
            <leg mode="car"/>
            <activity end_time="14:50:52" type="work" x="529652" y="183897"/>
            <leg mode="car"/>
            <activity type="home" x="515226" y="188222"/>
        </plan>
    </person>

</population>