<?xml version="1.0" encoding="UTF-8"?><!DOCTYPE population SYSTEM "http://matsim.org/files/dtd/population_v6.dtd"><population>
  <!--Created 2022-09-13 15:49:14.189033-->
  <person id="Tom">
    <attributes>
      <attribute class="java.lang.String" name="age">low</attribute>
      <attribute class="java.lang.String" name="hid">Smiths</attribute>
    </attributes>
    <plan selected="yes">
      <activity type="home" start_time="00:00:00" end_time="24:00:00" x="0.0" y="0.0"/>
    </plan>
  </person>
  <person id="Tammy">
    <attributes>
      <attribute class="java.lang.String" name="age">low</attribute>
      <attribute class="java.lang.String" name="hid">Smiths</attribute>
    </attributes>
    <plan selected="yes">
      <activity type="home" start_time="00:00:00" end_time="07:25:00" x="0.0" y="0.0"/>
      <leg mode="car" trav_time="01:00:00"/>
      <activity type="work" start_time="08:25:00" end_time="16:30:00" x="1233.0" y="1234.0"/>
      <leg mode="car" trav_time="01:00:00"/>
      <activity type="home" start_time="17:30:00" end_time="24:00:00" x="0.0" y="0.0"/>
    </plan>
  </person>
  <person id="0">
    <attributes>
      <attribute class="java.lang.String" name="bot">yes</attribute>
      <attribute class="java.lang.String" name="electric vehicle">yes</attribute>
      <attribute class="java.lang.String" name="hid">0</attribute>
    </attributes>
    <plan selected="yes">
      <activity type="depot" start_time="00:00:00" end_time="05:00:00" x="0.0" y="0.0"/>
      <leg mode="car" trav_time="00:10:00"/>
      <activity type="delivery" start_time="05:10:00" end_time="05:20:00" x="1000.0" y="1000.0"/>
      <leg mode="car" trav_time="00:10:00"/>
      <activity type="delivery" start_time="05:30:00" end_time="05:40:00" x="0.0" y="1000.0"/>
      <leg mode="car" trav_time="00:10:00"/>
      <activity type="depot" start_time="05:50:00" end_time="24:00:00" x="0.0" y="0.0"/>
    </plan>
  </person>
</population>
