<?xml version="1.0" encoding="UTF-8"?><!DOCTYPE population SYSTEM "http://matsim.org/files/dtd/population_v5.dtd">
<population>
  <!--Input Records:-->
  <person id="census_0">
    <plan selected="yes">
      <act end_time="07:24:52" type="home" x="515226" y="188222"/>
      <leg mode="pt"/>
      <act end_time="14:50:52" type="work" x="529652" y="183897"/>
      <leg mode="pt"/>
      <act type="home" x="515226" y="188222"/>
    </plan>
  </person>
  <person id="census_1">
    <plan selected="yes">
      <act end_time="08:27:33" type="home" x="542920" y="174494"/>
      <leg mode="pt"/>
      <act end_time="17:45:33" type="work" x="534457" y="181724"/>
      <leg mode="pt"/>
      <act type="home" x="542920" y="174494"/>
    </plan>
  </person>
  <person id="census_2">
    <plan selected="yes">
      <act end_time="07:02:35" type="home" x="532433" y="164489"/>
      <leg mode="pt"/>
      <act end_time="15:17:35" type="work" x="531187" y="163636"/>
      <leg mode="pt"/>
      <act type="home" x="532433" y="164489"/>
    </plan>
  </person>
  <person id="census_3">
    <plan selected="yes">
      <act end_time="07:08:20" type="home" x="534233" y="189095"/>
      <leg mode="pt"/>
      <act end_time="16:47:20" type="work" x="544504" y="188259"/>
      <leg mode="pt"/>
      <act type="home" x="534233" y="189095"/>
    </plan>
  </person>
  <person id="census_4">
    <plan selected="yes">
      <act end_time="08:03:29" type="home" x="516023" y="177457"/>
      <leg mode="car"/>
      <act end_time="16:57:29" type="work" x="533256" y="181084"/>
      <leg mode="car"/>
      <act type="home" x="516023" y="177457"/>
    </plan>
  </person>
  <person id="census_5">
    <plan selected="yes">
      <act end_time="09:28:56" type="home" x="526569" y="179408"/>
      <leg mode="car"/>
      <act end_time="16:59:56" type="education" x="522802" y="181530"/>
      <leg mode="car"/>
      <act type="home" x="526569" y="179408"/>
    </plan>
  </person>
  <person id="census_6">
    <plan selected="yes">
      <act end_time="07:22:53" type="home" x="534248" y="189254"/>
      <leg mode="pt"/>
      <act end_time="16:52:53" type="work" x="526186" y="177831"/>
      <leg mode="pt"/>
      <act type="home" x="534248" y="189254"/>
    </plan>
  </person>
  <person id="census_7">
    <plan selected="yes">
      <act end_time="07:59:43" type="home" x="517473" y="180406"/>
      <leg mode="pt"/>
      <act end_time="16:02:43" type="education" x="515089" y="179994"/>
      <leg mode="pt"/>
      <act type="home" x="517473" y="180406"/>
    </plan>
  </person>
  <person id="census_8">
    <plan selected="yes">
      <act end_time="08:19:53" type="home" x="531109" y="177395"/>
      <leg mode="pt"/>
      <act end_time="16:39:53" type="work" x="528179" y="181995"/>
      <leg mode="pt"/>
      <act type="home" x="531109" y="177395"/>
    </plan>
  </person>
  <person id="census_9">
    <plan selected="yes">
      <act end_time="09:49:58" type="home" x="531914" y="165453"/>
      <leg mode="pt"/>
      <act end_time="18:42:58" type="work" x="529956" y="166352"/>
      <leg mode="pt"/>
      <act type="home" x="531914" y="165453"/>
    </plan>
  </person>
  <person id="census_10">
    <plan selected="yes">
      <act end_time="07:01:09" type="home" x="535063" y="163365"/>
      <leg mode="pt"/>
      <act end_time="16:01:09" type="work" x="531998" y="166080"/>
      <leg mode="pt"/>
      <act type="home" x="535063" y="163365"/>
    </plan>
  </person>
  <person id="census_11">
    <plan selected="yes">
      <act end_time="07:52:26" type="home" x="539250" y="176044"/>
      <leg mode="pt"/>
      <act end_time="16:54:26" type="work" x="528359" y="181806"/>
      <leg mode="pt"/>
      <act type="home" x="539250" y="176044"/>
    </plan>
  </person>
  <person id="census_12">
    <plan selected="yes">
      <act end_time="07:06:26" type="home" x="538889" y="161305"/>
      <leg mode="pt"/>
      <act end_time="15:54:26" type="education" x="535157" y="181833"/>
      <leg mode="pt"/>
      <act type="home" x="538889" y="161305"/>
    </plan>
  </person>
  <person id="census_13">
    <plan selected="yes">
      <act end_time="08:46:28" type="home" x="538389" y="180781"/>
      <leg mode="pt"/>
      <act end_time="17:05:28" type="work" x="532374" y="187605"/>
      <leg mode="pt"/>
      <act type="home" x="538389" y="180781"/>
    </plan>
  </person>
  <person id="census_14">
    <plan selected="yes">
      <act end_time="08:19:29" type="home" x="543693" y="185284"/>
      <leg mode="pt"/>
      <act end_time="18:28:29" type="education" x="534706" y="178584"/>
      <leg mode="pt"/>
      <act type="home" x="543693" y="185284"/>
    </plan>
  </person>
  <person id="census_15">
    <plan selected="yes">
      <act end_time="08:18:04" type="home" x="539512" y="187618"/>
      <leg mode="pt"/>
      <act end_time="17:31:04" type="work" x="541562" y="189968"/>
      <leg mode="pt"/>
      <act type="home" x="539512" y="187618"/>
    </plan>
  </person>
  <person id="census_16">
    <plan selected="yes">
      <act end_time="08:37:40" type="home" x="517359" y="180587"/>
      <leg mode="pt"/>
      <act end_time="17:10:40" type="education" x="518208" y="185126"/>
      <leg mode="pt"/>
      <act type="home" x="517359" y="180587"/>
    </plan>
  </person>
  <person id="census_17">
    <plan selected="yes">
      <act end_time="07:01:04" type="home" x="543666" y="185360"/>
      <leg mode="pt"/>
      <act end_time="15:25:04" type="work" x="530970" y="175749"/>
      <leg mode="pt"/>
      <act type="home" x="543666" y="185360"/>
    </plan>
  </person>
  <person id="census_18">
    <plan selected="yes">
      <act end_time="07:08:58" type="home" x="531961" y="188163"/>
      <leg mode="pt"/>
      <act end_time="15:02:58" type="work" x="529368" y="181141"/>
      <leg mode="pt"/>
      <act type="home" x="531961" y="188163"/>
    </plan>
  </person>
  <person id="census_19">
    <plan selected="yes">
      <act end_time="07:07:21" type="home" x="545928" y="182786"/>
      <leg mode="pt"/>
      <act end_time="15:22:21" type="work" x="526250" y="185691"/>
      <leg mode="pt"/>
      <act type="home" x="545928" y="182786"/>
    </plan>
  </person>
  <person id="census_20">
    <plan selected="yes">
      <act end_time="07:08:47" type="home" x="531179" y="183384"/>
      <leg mode="pt"/>
      <act end_time="17:45:47" type="work" x="530224" y="181240"/>
      <leg mode="pt"/>
      <act type="home" x="531179" y="183384"/>
    </plan>
  </person>
  <person id="census_21">
    <plan selected="yes">
      <act end_time="08:50:05" type="home" x="531337" y="182241"/>
      <leg mode="car"/>
      <act end_time="16:10:05" type="work" x="531403" y="183201"/>
      <leg mode="car"/>
      <act type="home" x="531337" y="182241"/>
    </plan>
  </person>
  <person id="census_22">
    <plan selected="yes">
      <act end_time="07:25:51" type="home" x="524028" y="176611"/>
      <leg mode="pt"/>
      <act end_time="15:13:51" type="work" x="537651" y="179893"/>
      <leg mode="pt"/>
      <act type="home" x="524028" y="176611"/>
    </plan>
  </person>
  <person id="census_23">
    <plan selected="yes">
      <act end_time="09:31:44" type="home" x="528983" y="175533"/>
      <leg mode="car"/>
      <act end_time="17:56:44" type="work" x="532904" y="182204"/>
      <leg mode="car"/>
      <act type="home" x="528983" y="175533"/>
    </plan>
  </person>
  <person id="census_24">
    <plan selected="yes">
      <act end_time="08:15:42" type="home" x="523364" y="169389"/>
      <leg mode="pt"/>
      <act end_time="17:16:42" type="work" x="527486" y="167382"/>
      <leg mode="pt"/>
      <act type="home" x="523364" y="169389"/>
    </plan>
  </person>
  <person id="census_25">
    <plan selected="yes">
      <act end_time="08:48:31" type="home" x="530936" y="177508"/>
      <leg mode="pt"/>
      <act end_time="17:22:31" type="work" x="519409" y="181631"/>
      <leg mode="pt"/>
      <act type="home" x="530936" y="177508"/>
    </plan>
  </person>
  <person id="census_26">
    <plan selected="yes">
      <act end_time="09:16:55" type="home" x="516821" y="191525"/>
      <leg mode="pt"/>
      <act end_time="19:45:55" type="work" x="512483" y="191169"/>
      <leg mode="pt"/>
      <act type="home" x="516821" y="191525"/>
    </plan>
  </person>
  <person id="census_27">
    <plan selected="yes">
      <act end_time="07:56:07" type="home" x="535658" y="170056"/>
      <leg mode="pt"/>
      <act end_time="17:58:07" type="education" x="542530" y="159411"/>
      <leg mode="pt"/>
      <act type="home" x="535658" y="170056"/>
    </plan>
  </person>
  <person id="census_28">
    <plan selected="yes">
      <act end_time="08:46:13" type="home" x="533244" y="170594"/>
      <leg mode="pt"/>
      <act end_time="16:07:13" type="work" x="528220" y="182110"/>
      <leg mode="pt"/>
      <act type="home" x="533244" y="170594"/>
    </plan>
  </person>
  <person id="census_29">
    <plan selected="yes">
      <act end_time="06:57:09" type="home" x="539401" y="181700"/>
      <leg mode="pt"/>
      <act end_time="14:58:09" type="work" x="530007" y="180854"/>
      <leg mode="pt"/>
      <act type="home" x="539401" y="181700"/>
    </plan>
  </person>
  <person id="census_30">
    <plan selected="yes">
      <act end_time="08:53:22" type="home" x="529410" y="183345"/>
      <leg mode="pt"/>
      <act end_time="17:04:22" type="work" x="528925" y="183803"/>
      <leg mode="pt"/>
      <act type="home" x="529410" y="183345"/>
    </plan>
  </person>
  <person id="census_31">
    <plan selected="yes">
      <act end_time="09:23:58" type="home" x="531014" y="179743"/>
      <leg mode="pt"/>
      <act end_time="18:25:58" type="work" x="532672" y="184844"/>
      <leg mode="pt"/>
      <act type="home" x="531014" y="179743"/>
    </plan>
  </person>
  <person id="census_32">
    <plan selected="yes">
      <act end_time="08:43:09" type="home" x="527306" y="178098"/>
      <leg mode="pt"/>
      <act end_time="16:36:09" type="education" x="524296" y="177736"/>
      <leg mode="pt"/>
      <act type="home" x="527306" y="178098"/>
    </plan>
  </person>
  <person id="census_33">
    <plan selected="yes">
      <act end_time="07:18:34" type="home" x="533413" y="181766"/>
      <leg mode="car"/>
      <act end_time="15:02:34" type="work" x="533268" y="181328"/>
      <leg mode="car"/>
      <act type="home" x="533413" y="181766"/>
    </plan>
  </person>
  <person id="census_34">
    <plan selected="yes">
      <act end_time="07:33:28" type="home" x="515558" y="189233"/>
      <leg mode="car"/>
      <act end_time="15:16:28" type="work" x="522135" y="182957"/>
      <leg mode="car"/>
      <act type="home" x="515558" y="189233"/>
    </plan>
  </person>
  <person id="census_35">
    <plan selected="yes">
      <act end_time="08:43:32" type="home" x="537418" y="183482"/>
      <leg mode="car"/>
      <act end_time="17:24:32" type="work" x="525420" y="181145"/>
      <leg mode="car"/>
      <act type="home" x="537418" y="183482"/>
    </plan>
  </person>
  <person id="census_36">
    <plan selected="yes">
      <act end_time="07:38:15" type="home" x="524529" y="174602"/>
      <leg mode="pt"/>
      <act end_time="16:55:15" type="work" x="529017" y="181535"/>
      <leg mode="pt"/>
      <act type="home" x="524529" y="174602"/>
    </plan>
  </person>
  <person id="census_37">
    <plan selected="yes">
      <act end_time="08:21:55" type="home" x="544887" y="184576"/>
      <leg mode="pt"/>
      <act end_time="18:00:55" type="work" x="546802" y="191868"/>
      <leg mode="pt"/>
      <act type="home" x="544887" y="184576"/>
    </plan>
  </person>
  <person id="census_38">
    <plan selected="yes">
      <act end_time="07:51:28" type="home" x="522158" y="187127"/>
      <leg mode="pt"/>
      <act end_time="16:00:28" type="work" x="513717" y="183755"/>
      <leg mode="pt"/>
      <act type="home" x="522158" y="187127"/>
    </plan>
  </person>
  <person id="census_39">
    <plan selected="yes">
      <act end_time="10:01:47" type="home" x="529117" y="178001"/>
      <leg mode="car"/>
      <act end_time="20:02:47" type="work" x="529054" y="181425"/>
      <leg mode="car"/>
      <act type="home" x="529117" y="178001"/>
    </plan>
  </person>
  <person id="census_40">
    <plan selected="yes">
      <act end_time="07:25:04" type="home" x="520917" y="182361"/>
      <leg mode="pt"/>
      <act end_time="14:48:04" type="work" x="533585" y="181245"/>
      <leg mode="pt"/>
      <act type="home" x="520917" y="182361"/>
    </plan>
  </person>
  <person id="census_41">
    <plan selected="yes">
      <act end_time="08:31:17" type="home" x="543508" y="177855"/>
      <leg mode="pt"/>
      <act end_time="15:53:17" type="education" x="536371" y="177383"/>
      <leg mode="pt"/>
      <act type="home" x="543508" y="177855"/>
    </plan>
  </person>
  <person id="census_42">
    <plan selected="yes">
      <act end_time="08:58:56" type="home" x="532072" y="166102"/>
      <leg mode="pt"/>
      <act end_time="16:41:56" type="work" x="532019" y="166142"/>
      <leg mode="pt"/>
      <act type="home" x="532072" y="166102"/>
    </plan>
  </person>
  <person id="census_43">
    <plan selected="yes">
      <act end_time="09:39:04" type="home" x="525610" y="173633"/>
      <leg mode="car"/>
      <act end_time="18:31:04" type="work" x="537722" y="180230"/>
      <leg mode="car"/>
      <act type="home" x="525610" y="173633"/>
    </plan>
  </person>
  <person id="census_44">
    <plan selected="yes">
      <act end_time="08:26:30" type="home" x="536529" y="172457"/>
      <leg mode="pt"/>
      <act end_time="18:37:30" type="education" x="549024" y="177107"/>
      <leg mode="pt"/>
      <act type="home" x="536529" y="172457"/>
    </plan>
  </person>
  <person id="census_45">
    <plan selected="yes">
      <act end_time="08:16:14" type="home" x="523209" y="194080"/>
      <leg mode="car"/>
      <act end_time="17:00:14" type="work" x="533848" y="198368"/>
      <leg mode="car"/>
      <act type="home" x="523209" y="194080"/>
    </plan>
  </person>
  <person id="census_46">
    <plan selected="yes">
      <act end_time="08:20:01" type="home" x="537200" y="189742"/>
      <leg mode="pt"/>
      <act end_time="17:07:01" type="work" x="532867" y="181202"/>
      <leg mode="pt"/>
      <act type="home" x="537200" y="189742"/>
    </plan>
  </person>
  <person id="census_47">
    <plan selected="yes">
      <act end_time="08:41:10" type="home" x="535548" y="186379"/>
      <leg mode="pt"/>
      <act end_time="16:47:10" type="work" x="533279" y="181754"/>
      <leg mode="pt"/>
      <act type="home" x="535548" y="186379"/>
    </plan>
  </person>
  <person id="census_48">
    <plan selected="yes">
      <act end_time="08:46:12" type="home" x="529459" y="171040"/>
      <leg mode="car"/>
      <act end_time="16:20:12" type="work" x="528764" y="180392"/>
      <leg mode="car"/>
      <act type="home" x="529459" y="171040"/>
    </plan>
  </person>
  <person id="census_49">
    <plan selected="yes">
      <act end_time="08:02:22" type="home" x="529244" y="181959"/>
      <leg mode="pt"/>
      <act end_time="18:24:22" type="work" x="530955" y="182230"/>
      <leg mode="pt"/>
      <act type="home" x="529244" y="181959"/>
    </plan>
  </person>
  <person id="census_50">
    <plan selected="yes">
      <act end_time="07:54:27" type="home" x="522674" y="189424"/>
      <leg mode="pt"/>
      <act end_time="16:54:27" type="education" x="530726" y="181568"/>
      <leg mode="pt"/>
      <act type="home" x="522674" y="189424"/>
    </plan>
  </person>
</population>