<?xml version="1.0" encoding="UTF-8"?><!DOCTYPE population SYSTEM "http://matsim.org/files/dtd/population_v6.dtd"><population>
  <!--Created 2022-09-13 15:53:22.641741-->
  <person id="census_0">
    <attributes>
      <attribute class="java.lang.String" name="hid">census_0</attribute>
    </attributes>
    <plan selected="yes">
      <activity type="home" start_time="00:00:00" end_time="07:24:52" x="515226.0" y="188222.0"/>
      <leg mode="pt" trav_time="00:00:00"/>
      <activity type="work" start_time="07:24:52" end_time="14:50:52" x="529652.0" y="183897.0"/>
      <leg mode="pt" trav_time="00:00:00"/>
      <activity type="home" start_time="14:50:52" end_time="24:00:00" x="515226.0" y="188222.0"/>
    </plan>
  </person>
  <person id="census_1">
    <attributes>
      <attribute class="java.lang.String" name="hid">census_1</attribute>
    </attributes>
    <plan selected="yes">
      <activity type="home" start_time="00:00:00" end_time="08:27:33" x="542920.0" y="174494.0"/>
      <leg mode="pt" trav_time="00:00:00"/>
      <activity type="work" start_time="08:27:33" end_time="17:45:33" x="534457.0" y="181724.0"/>
      <leg mode="pt" trav_time="00:00:00"/>
      <activity type="home" start_time="17:45:33" end_time="24:00:00" x="542920.0" y="174494.0"/>
    </plan>
  </person>
  <person id="census_2">
    <attributes>
      <attribute class="java.lang.String" name="hid">census_2</attribute>
    </attributes>
    <plan selected="yes">
      <activity type="home" start_time="00:00:00" end_time="07:02:35" x="532433.0" y="164489.0"/>
      <leg mode="pt" trav_time="00:00:00"/>
      <activity type="work" start_time="07:02:35" end_time="15:17:35" x="531187.0" y="163636.0"/>
      <leg mode="pt" trav_time="00:00:00"/>
      <activity type="home" start_time="15:17:35" end_time="24:00:00" x="532433.0" y="164489.0"/>
    </plan>
  </person>
  <person id="census_3">
    <attributes>
      <attribute class="java.lang.String" name="hid">census_3</attribute>
    </attributes>
    <plan selected="yes">
      <activity type="home" start_time="00:00:00" end_time="07:08:20" x="534233.0" y="189095.0"/>
      <leg mode="pt" trav_time="00:00:00"/>
      <activity type="work" start_time="07:08:20" end_time="16:47:20" x="544504.0" y="188259.0"/>
      <leg mode="pt" trav_time="00:00:00"/>
      <activity type="home" start_time="16:47:20" end_time="24:00:00" x="534233.0" y="189095.0"/>
    </plan>
  </person>
  <person id="census_4">
    <attributes>
      <attribute class="java.lang.String" name="hid">census_4</attribute>
    </attributes>
    <plan selected="yes">
      <activity type="home" start_time="00:00:00" end_time="08:03:29" x="516023.0" y="177457.0"/>
      <leg mode="car" trav_time="00:00:00"/>
      <activity type="work" start_time="08:03:29" end_time="16:57:29" x="533256.0" y="181084.0"/>
      <leg mode="car" trav_time="00:00:00"/>
      <activity type="home" start_time="16:57:29" end_time="24:00:00" x="516023.0" y="177457.0"/>
    </plan>
  </person>
  <person id="census_5">
    <attributes>
      <attribute class="java.lang.String" name="hid">census_5</attribute>
    </attributes>
    <plan selected="yes">
      <activity type="home" start_time="00:00:00" end_time="09:28:56" x="526569.0" y="179408.0"/>
      <leg mode="car" trav_time="00:00:00"/>
      <activity type="education" start_time="09:28:56" end_time="16:59:56" x="522802.0" y="181530.0"/>
      <leg mode="car" trav_time="00:00:00"/>
      <activity type="home" start_time="16:59:56" end_time="24:00:00" x="526569.0" y="179408.0"/>
    </plan>
  </person>
  <person id="census_6">
    <attributes>
      <attribute class="java.lang.String" name="hid">census_6</attribute>
    </attributes>
    <plan selected="yes">
      <activity type="home" start_time="00:00:00" end_time="07:22:53" x="534248.0" y="189254.0"/>
      <leg mode="pt" trav_time="00:00:00"/>
      <activity type="work" start_time="07:22:53" end_time="16:52:53" x="526186.0" y="177831.0"/>
      <leg mode="pt" trav_time="00:00:00"/>
      <activity type="home" start_time="16:52:53" end_time="24:00:00" x="534248.0" y="189254.0"/>
    </plan>
  </person>
  <person id="census_7">
    <attributes>
      <attribute class="java.lang.String" name="hid">census_7</attribute>
    </attributes>
    <plan selected="yes">
      <activity type="home" start_time="00:00:00" end_time="07:59:43" x="517473.0" y="180406.0"/>
      <leg mode="pt" trav_time="00:00:00"/>
      <activity type="education" start_time="07:59:43" end_time="16:02:43" x="515089.0" y="179994.0"/>
      <leg mode="pt" trav_time="00:00:00"/>
      <activity type="home" start_time="16:02:43" end_time="24:00:00" x="517473.0" y="180406.0"/>
    </plan>
  </person>
  <person id="census_8">
    <attributes>
      <attribute class="java.lang.String" name="hid">census_8</attribute>
    </attributes>
    <plan selected="yes">
      <activity type="home" start_time="00:00:00" end_time="08:19:53" x="531109.0" y="177395.0"/>
      <leg mode="pt" trav_time="00:00:00"/>
      <activity type="work" start_time="08:19:53" end_time="16:39:53" x="528179.0" y="181995.0"/>
      <leg mode="pt" trav_time="00:00:00"/>
      <activity type="home" start_time="16:39:53" end_time="24:00:00" x="531109.0" y="177395.0"/>
    </plan>
  </person>
  <person id="census_9">
    <attributes>
      <attribute class="java.lang.String" name="hid">census_9</attribute>
    </attributes>
    <plan selected="yes">
      <activity type="home" start_time="00:00:00" end_time="09:49:58" x="531914.0" y="165453.0"/>
      <leg mode="pt" trav_time="00:00:00"/>
      <activity type="work" start_time="09:49:58" end_time="18:42:58" x="529956.0" y="166352.0"/>
      <leg mode="pt" trav_time="00:00:00"/>
      <activity type="home" start_time="18:42:58" end_time="24:00:00" x="531914.0" y="165453.0"/>
    </plan>
  </person>
  <person id="census_10">
    <attributes>
      <attribute class="java.lang.String" name="hid">census_10</attribute>
    </attributes>
    <plan selected="yes">
      <activity type="home" start_time="00:00:00" end_time="07:01:09" x="535063.0" y="163365.0"/>
      <leg mode="pt" trav_time="00:00:00"/>
      <activity type="work" start_time="07:01:09" end_time="16:01:09" x="531998.0" y="166080.0"/>
      <leg mode="pt" trav_time="00:00:00"/>
      <activity type="home" start_time="16:01:09" end_time="24:00:00" x="535063.0" y="163365.0"/>
    </plan>
  </person>
  <person id="census_11">
    <attributes>
      <attribute class="java.lang.String" name="hid">census_11</attribute>
    </attributes>
    <plan selected="yes">
      <activity type="home" start_time="00:00:00" end_time="07:52:26" x="539250.0" y="176044.0"/>
      <leg mode="pt" trav_time="00:00:00"/>
      <activity type="work" start_time="07:52:26" end_time="16:54:26" x="528359.0" y="181806.0"/>
      <leg mode="pt" trav_time="00:00:00"/>
      <activity type="home" start_time="16:54:26" end_time="24:00:00" x="539250.0" y="176044.0"/>
    </plan>
  </person>
  <person id="census_12">
    <attributes>
      <attribute class="java.lang.String" name="hid">census_12</attribute>
    </attributes>
    <plan selected="yes">
      <activity type="home" start_time="00:00:00" end_time="07:06:26" x="538889.0" y="161305.0"/>
      <leg mode="pt" trav_time="00:00:00"/>
      <activity type="education" start_time="07:06:26" end_time="15:54:26" x="535157.0" y="181833.0"/>
      <leg mode="pt" trav_time="00:00:00"/>
      <activity type="home" start_time="15:54:26" end_time="24:00:00" x="538889.0" y="161305.0"/>
    </plan>
  </person>
  <person id="census_13">
    <attributes>
      <attribute class="java.lang.String" name="hid">census_13</attribute>
    </attributes>
    <plan selected="yes">
      <activity type="home" start_time="00:00:00" end_time="08:46:28" x="538389.0" y="180781.0"/>
      <leg mode="pt" trav_time="00:00:00"/>
      <activity type="work" start_time="08:46:28" end_time="17:05:28" x="532374.0" y="187605.0"/>
      <leg mode="pt" trav_time="00:00:00"/>
      <activity type="home" start_time="17:05:28" end_time="24:00:00" x="538389.0" y="180781.0"/>
    </plan>
  </person>
  <person id="census_14">
    <attributes>
      <attribute class="java.lang.String" name="hid">census_14</attribute>
    </attributes>
    <plan selected="yes">
      <activity type="home" start_time="00:00:00" end_time="08:19:29" x="543693.0" y="185284.0"/>
      <leg mode="pt" trav_time="00:00:00"/>
      <activity type="education" start_time="08:19:29" end_time="18:28:29" x="534706.0" y="178584.0"/>
      <leg mode="pt" trav_time="00:00:00"/>
      <activity type="home" start_time="18:28:29" end_time="24:00:00" x="543693.0" y="185284.0"/>
    </plan>
  </person>
  <person id="census_15">
    <attributes>
      <attribute class="java.lang.String" name="hid">census_15</attribute>
    </attributes>
    <plan selected="yes">
      <activity type="home" start_time="00:00:00" end_time="08:18:04" x="539512.0" y="187618.0"/>
      <leg mode="pt" trav_time="00:00:00"/>
      <activity type="work" start_time="08:18:04" end_time="17:31:04" x="541562.0" y="189968.0"/>
      <leg mode="pt" trav_time="00:00:00"/>
      <activity type="home" start_time="17:31:04" end_time="24:00:00" x="539512.0" y="187618.0"/>
    </plan>
  </person>
  <person id="census_16">
    <attributes>
      <attribute class="java.lang.String" name="hid">census_16</attribute>
    </attributes>
    <plan selected="yes">
      <activity type="home" start_time="00:00:00" end_time="08:37:40" x="517359.0" y="180587.0"/>
      <leg mode="pt" trav_time="00:00:00"/>
      <activity type="education" start_time="08:37:40" end_time="17:10:40" x="518208.0" y="185126.0"/>
      <leg mode="pt" trav_time="00:00:00"/>
      <activity type="home" start_time="17:10:40" end_time="24:00:00" x="517359.0" y="180587.0"/>
    </plan>
  </person>
  <person id="census_17">
    <attributes>
      <attribute class="java.lang.String" name="hid">census_17</attribute>
    </attributes>
    <plan selected="yes">
      <activity type="home" start_time="00:00:00" end_time="07:01:04" x="543666.0" y="185360.0"/>
      <leg mode="pt" trav_time="00:00:00"/>
      <activity type="work" start_time="07:01:04" end_time="15:25:04" x="530970.0" y="175749.0"/>
      <leg mode="pt" trav_time="00:00:00"/>
      <activity type="home" start_time="15:25:04" end_time="24:00:00" x="543666.0" y="185360.0"/>
    </plan>
  </person>
  <person id="census_18">
    <attributes>
      <attribute class="java.lang.String" name="hid">census_18</attribute>
    </attributes>
    <plan selected="yes">
      <activity type="home" start_time="00:00:00" end_time="07:08:58" x="531961.0" y="188163.0"/>
      <leg mode="pt" trav_time="00:00:00"/>
      <activity type="work" start_time="07:08:58" end_time="15:02:58" x="529368.0" y="181141.0"/>
      <leg mode="pt" trav_time="00:00:00"/>
      <activity type="home" start_time="15:02:58" end_time="24:00:00" x="531961.0" y="188163.0"/>
    </plan>
  </person>
  <person id="census_19">
    <attributes>
      <attribute class="java.lang.String" name="hid">census_19</attribute>
    </attributes>
    <plan selected="yes">
      <activity type="home" start_time="00:00:00" end_time="07:07:21" x="545928.0" y="182786.0"/>
      <leg mode="pt" trav_time="00:00:00"/>
      <activity type="work" start_time="07:07:21" end_time="15:22:21" x="526250.0" y="185691.0"/>
      <leg mode="pt" trav_time="00:00:00"/>
      <activity type="home" start_time="15:22:21" end_time="24:00:00" x="545928.0" y="182786.0"/>
    </plan>
  </person>
  <person id="census_20">
    <attributes>
      <attribute class="java.lang.String" name="hid">census_20</attribute>
    </attributes>
    <plan selected="yes">
      <activity type="home" start_time="00:00:00" end_time="07:08:47" x="531179.0" y="183384.0"/>
      <leg mode="pt" trav_time="00:00:00"/>
      <activity type="work" start_time="07:08:47" end_time="17:45:47" x="530224.0" y="181240.0"/>
      <leg mode="pt" trav_time="00:00:00"/>
      <activity type="home" start_time="17:45:47" end_time="24:00:00" x="531179.0" y="183384.0"/>
    </plan>
  </person>
  <person id="census_21">
    <attributes>
      <attribute class="java.lang.String" name="hid">census_21</attribute>
    </attributes>
    <plan selected="yes">
      <activity type="home" start_time="00:00:00" end_time="08:50:05" x="531337.0" y="182241.0"/>
      <leg mode="car" trav_time="00:00:00"/>
      <activity type="work" start_time="08:50:05" end_time="16:10:05" x="531403.0" y="183201.0"/>
      <leg mode="car" trav_time="00:00:00"/>
      <activity type="home" start_time="16:10:05" end_time="24:00:00" x="531337.0" y="182241.0"/>
    </plan>
  </person>
  <person id="census_22">
    <attributes>
      <attribute class="java.lang.String" name="hid">census_22</attribute>
    </attributes>
    <plan selected="yes">
      <activity type="home" start_time="00:00:00" end_time="07:25:51" x="524028.0" y="176611.0"/>
      <leg mode="pt" trav_time="00:00:00"/>
      <activity type="work" start_time="07:25:51" end_time="15:13:51" x="537651.0" y="179893.0"/>
      <leg mode="pt" trav_time="00:00:00"/>
      <activity type="home" start_time="15:13:51" end_time="24:00:00" x="524028.0" y="176611.0"/>
    </plan>
  </person>
  <person id="census_23">
    <attributes>
      <attribute class="java.lang.String" name="hid">census_23</attribute>
    </attributes>
    <plan selected="yes">
      <activity type="home" start_time="00:00:00" end_time="09:31:44" x="528983.0" y="175533.0"/>
      <leg mode="car" trav_time="00:00:00"/>
      <activity type="work" start_time="09:31:44" end_time="17:56:44" x="532904.0" y="182204.0"/>
      <leg mode="car" trav_time="00:00:00"/>
      <activity type="home" start_time="17:56:44" end_time="24:00:00" x="528983.0" y="175533.0"/>
    </plan>
  </person>
  <person id="census_24">
    <attributes>
      <attribute class="java.lang.String" name="hid">census_24</attribute>
    </attributes>
    <plan selected="yes">
      <activity type="home" start_time="00:00:00" end_time="08:15:42" x="523364.0" y="169389.0"/>
      <leg mode="pt" trav_time="00:00:00"/>
      <activity type="work" start_time="08:15:42" end_time="17:16:42" x="527486.0" y="167382.0"/>
      <leg mode="pt" trav_time="00:00:00"/>
      <activity type="home" start_time="17:16:42" end_time="24:00:00" x="523364.0" y="169389.0"/>
    </plan>
  </person>
  <person id="census_25">
    <attributes>
      <attribute class="java.lang.String" name="hid">census_25</attribute>
    </attributes>
    <plan selected="yes">
      <activity type="home" start_time="00:00:00" end_time="08:48:31" x="530936.0" y="177508.0"/>
      <leg mode="pt" trav_time="00:00:00"/>
      <activity type="work" start_time="08:48:31" end_time="17:22:31" x="519409.0" y="181631.0"/>
      <leg mode="pt" trav_time="00:00:00"/>
      <activity type="home" start_time="17:22:31" end_time="24:00:00" x="530936.0" y="177508.0"/>
    </plan>
  </person>
  <person id="census_26">
    <attributes>
      <attribute class="java.lang.String" name="hid">census_26</attribute>
    </attributes>
    <plan selected="yes">
      <activity type="home" start_time="00:00:00" end_time="09:16:55" x="516821.0" y="191525.0"/>
      <leg mode="pt" trav_time="00:00:00"/>
      <activity type="work" start_time="09:16:55" end_time="19:45:55" x="512483.0" y="191169.0"/>
      <leg mode="pt" trav_time="00:00:00"/>
      <activity type="home" start_time="19:45:55" end_time="24:00:00" x="516821.0" y="191525.0"/>
    </plan>
  </person>
  <person id="census_27">
    <attributes>
      <attribute class="java.lang.String" name="hid">census_27</attribute>
    </attributes>
    <plan selected="yes">
      <activity type="home" start_time="00:00:00" end_time="07:56:07" x="535658.0" y="170056.0"/>
      <leg mode="pt" trav_time="00:00:00"/>
      <activity type="education" start_time="07:56:07" end_time="17:58:07" x="542530.0" y="159411.0"/>
      <leg mode="pt" trav_time="00:00:00"/>
      <activity type="home" start_time="17:58:07" end_time="24:00:00" x="535658.0" y="170056.0"/>
    </plan>
  </person>
  <person id="census_28">
    <attributes>
      <attribute class="java.lang.String" name="hid">census_28</attribute>
    </attributes>
    <plan selected="yes">
      <activity type="home" start_time="00:00:00" end_time="08:46:13" x="533244.0" y="170594.0"/>
      <leg mode="pt" trav_time="00:00:00"/>
      <activity type="work" start_time="08:46:13" end_time="16:07:13" x="528220.0" y="182110.0"/>
      <leg mode="pt" trav_time="00:00:00"/>
      <activity type="home" start_time="16:07:13" end_time="24:00:00" x="533244.0" y="170594.0"/>
    </plan>
  </person>
  <person id="census_29">
    <attributes>
      <attribute class="java.lang.String" name="hid">census_29</attribute>
    </attributes>
    <plan selected="yes">
      <activity type="home" start_time="00:00:00" end_time="06:57:09" x="539401.0" y="181700.0"/>
      <leg mode="pt" trav_time="00:00:00"/>
      <activity type="work" start_time="06:57:09" end_time="14:58:09" x="530007.0" y="180854.0"/>
      <leg mode="pt" trav_time="00:00:00"/>
      <activity type="home" start_time="14:58:09" end_time="24:00:00" x="539401.0" y="181700.0"/>
    </plan>
  </person>
  <person id="census_30">
    <attributes>
      <attribute class="java.lang.String" name="hid">census_30</attribute>
    </attributes>
    <plan selected="yes">
      <activity type="home" start_time="00:00:00" end_time="08:53:22" x="529410.0" y="183345.0"/>
      <leg mode="pt" trav_time="00:00:00"/>
      <activity type="work" start_time="08:53:22" end_time="17:04:22" x="528925.0" y="183803.0"/>
      <leg mode="pt" trav_time="00:00:00"/>
      <activity type="home" start_time="17:04:22" end_time="24:00:00" x="529410.0" y="183345.0"/>
    </plan>
  </person>
  <person id="census_31">
    <attributes>
      <attribute class="java.lang.String" name="hid">census_31</attribute>
    </attributes>
    <plan selected="yes">
      <activity type="home" start_time="00:00:00" end_time="09:23:58" x="531014.0" y="179743.0"/>
      <leg mode="pt" trav_time="00:00:00"/>
      <activity type="work" start_time="09:23:58" end_time="18:25:58" x="532672.0" y="184844.0"/>
      <leg mode="pt" trav_time="00:00:00"/>
      <activity type="home" start_time="18:25:58" end_time="24:00:00" x="531014.0" y="179743.0"/>
    </plan>
  </person>
  <person id="census_32">
    <attributes>
      <attribute class="java.lang.String" name="hid">census_32</attribute>
    </attributes>
    <plan selected="yes">
      <activity type="home" start_time="00:00:00" end_time="08:43:09" x="527306.0" y="178098.0"/>
      <leg mode="pt" trav_time="00:00:00"/>
      <activity type="education" start_time="08:43:09" end_time="16:36:09" x="524296.0" y="177736.0"/>
      <leg mode="pt" trav_time="00:00:00"/>
      <activity type="home" start_time="16:36:09" end_time="24:00:00" x="527306.0" y="178098.0"/>
    </plan>
  </person>
  <person id="census_33">
    <attributes>
      <attribute class="java.lang.String" name="hid">census_33</attribute>
    </attributes>
    <plan selected="yes">
      <activity type="home" start_time="00:00:00" end_time="07:18:34" x="533413.0" y="181766.0"/>
      <leg mode="car" trav_time="00:00:00"/>
      <activity type="work" start_time="07:18:34" end_time="15:02:34" x="533268.0" y="181328.0"/>
      <leg mode="car" trav_time="00:00:00"/>
      <activity type="home" start_time="15:02:34" end_time="24:00:00" x="533413.0" y="181766.0"/>
    </plan>
  </person>
  <person id="census_34">
    <attributes>
      <attribute class="java.lang.String" name="hid">census_34</attribute>
    </attributes>
    <plan selected="yes">
      <activity type="home" start_time="00:00:00" end_time="07:33:28" x="515558.0" y="189233.0"/>
      <leg mode="car" trav_time="00:00:00"/>
      <activity type="work" start_time="07:33:28" end_time="15:16:28" x="522135.0" y="182957.0"/>
      <leg mode="car" trav_time="00:00:00"/>
      <activity type="home" start_time="15:16:28" end_time="24:00:00" x="515558.0" y="189233.0"/>
    </plan>
  </person>
  <person id="census_35">
    <attributes>
      <attribute class="java.lang.String" name="hid">census_35</attribute>
    </attributes>
    <plan selected="yes">
      <activity type="home" start_time="00:00:00" end_time="08:43:32" x="537418.0" y="183482.0"/>
      <leg mode="car" trav_time="00:00:00"/>
      <activity type="work" start_time="08:43:32" end_time="17:24:32" x="525420.0" y="181145.0"/>
      <leg mode="car" trav_time="00:00:00"/>
      <activity type="home" start_time="17:24:32" end_time="24:00:00" x="537418.0" y="183482.0"/>
    </plan>
  </person>
  <person id="census_36">
    <attributes>
      <attribute class="java.lang.String" name="hid">census_36</attribute>
    </attributes>
    <plan selected="yes">
      <activity type="home" start_time="00:00:00" end_time="07:38:15" x="524529.0" y="174602.0"/>
      <leg mode="pt" trav_time="00:00:00"/>
      <activity type="work" start_time="07:38:15" end_time="16:55:15" x="529017.0" y="181535.0"/>
      <leg mode="pt" trav_time="00:00:00"/>
      <activity type="home" start_time="16:55:15" end_time="24:00:00" x="524529.0" y="174602.0"/>
    </plan>
  </person>
  <person id="census_37">
    <attributes>
      <attribute class="java.lang.String" name="hid">census_37</attribute>
    </attributes>
    <plan selected="yes">
      <activity type="home" start_time="00:00:00" end_time="08:21:55" x="544887.0" y="184576.0"/>
      <leg mode="pt" trav_time="00:00:00"/>
      <activity type="work" start_time="08:21:55" end_time="18:00:55" x="546802.0" y="191868.0"/>
      <leg mode="pt" trav_time="00:00:00"/>
      <activity type="home" start_time="18:00:55" end_time="24:00:00" x="544887.0" y="184576.0"/>
    </plan>
  </person>
  <person id="census_38">
    <attributes>
      <attribute class="java.lang.String" name="hid">census_38</attribute>
    </attributes>
    <plan selected="yes">
      <activity type="home" start_time="00:00:00" end_time="07:51:28" x="522158.0" y="187127.0"/>
      <leg mode="pt" trav_time="00:00:00"/>
      <activity type="work" start_time="07:51:28" end_time="16:00:28" x="513717.0" y="183755.0"/>
      <leg mode="pt" trav_time="00:00:00"/>
      <activity type="home" start_time="16:00:28" end_time="24:00:00" x="522158.0" y="187127.0"/>
    </plan>
  </person>
  <person id="census_39">
    <attributes>
      <attribute class="java.lang.String" name="hid">census_39</attribute>
    </attributes>
    <plan selected="yes">
      <activity type="home" start_time="00:00:00" end_time="10:01:47" x="529117.0" y="178001.0"/>
      <leg mode="car" trav_time="00:00:00"/>
      <activity type="work" start_time="10:01:47" end_time="20:02:47" x="529054.0" y="181425.0"/>
      <leg mode="car" trav_time="00:00:00"/>
      <activity type="home" start_time="20:02:47" end_time="24:00:00" x="529117.0" y="178001.0"/>
    </plan>
  </person>
  <person id="census_40">
    <attributes>
      <attribute class="java.lang.String" name="hid">census_40</attribute>
    </attributes>
    <plan selected="yes">
      <activity type="home" start_time="00:00:00" end_time="07:25:04" x="520917.0" y="182361.0"/>
      <leg mode="pt" trav_time="00:00:00"/>
      <activity type="work" start_time="07:25:04" end_time="14:48:04" x="533585.0" y="181245.0"/>
      <leg mode="pt" trav_time="00:00:00"/>
      <activity type="home" start_time="14:48:04" end_time="24:00:00" x="520917.0" y="182361.0"/>
    </plan>
  </person>
  <person id="census_41">
    <attributes>
      <attribute class="java.lang.String" name="hid">census_41</attribute>
    </attributes>
    <plan selected="yes">
      <activity type="home" start_time="00:00:00" end_time="08:31:17" x="543508.0" y="177855.0"/>
      <leg mode="pt" trav_time="00:00:00"/>
      <activity type="education" start_time="08:31:17" end_time="15:53:17" x="536371.0" y="177383.0"/>
      <leg mode="pt" trav_time="00:00:00"/>
      <activity type="home" start_time="15:53:17" end_time="24:00:00" x="543508.0" y="177855.0"/>
    </plan>
  </person>
  <person id="census_42">
    <attributes>
      <attribute class="java.lang.String" name="hid">census_42</attribute>
    </attributes>
    <plan selected="yes">
      <activity type="home" start_time="00:00:00" end_time="08:58:56" x="532072.0" y="166102.0"/>
      <leg mode="pt" trav_time="00:00:00"/>
      <activity type="work" start_time="08:58:56" end_time="16:41:56" x="532019.0" y="166142.0"/>
      <leg mode="pt" trav_time="00:00:00"/>
      <activity type="home" start_time="16:41:56" end_time="24:00:00" x="532072.0" y="166102.0"/>
    </plan>
  </person>
  <person id="census_43">
    <attributes>
      <attribute class="java.lang.String" name="hid">census_43</attribute>
    </attributes>
    <plan selected="yes">
      <activity type="home" start_time="00:00:00" end_time="09:39:04" x="525610.0" y="173633.0"/>
      <leg mode="car" trav_time="00:00:00"/>
      <activity type="work" start_time="09:39:04" end_time="18:31:04" x="537722.0" y="180230.0"/>
      <leg mode="car" trav_time="00:00:00"/>
      <activity type="home" start_time="18:31:04" end_time="24:00:00" x="525610.0" y="173633.0"/>
    </plan>
  </person>
  <person id="census_44">
    <attributes>
      <attribute class="java.lang.String" name="hid">census_44</attribute>
    </attributes>
    <plan selected="yes">
      <activity type="home" start_time="00:00:00" end_time="08:26:30" x="536529.0" y="172457.0"/>
      <leg mode="pt" trav_time="00:00:00"/>
      <activity type="education" start_time="08:26:30" end_time="18:37:30" x="549024.0" y="177107.0"/>
      <leg mode="pt" trav_time="00:00:00"/>
      <activity type="home" start_time="18:37:30" end_time="24:00:00" x="536529.0" y="172457.0"/>
    </plan>
  </person>
  <person id="census_45">
    <attributes>
      <attribute class="java.lang.String" name="hid">census_45</attribute>
    </attributes>
    <plan selected="yes">
      <activity type="home" start_time="00:00:00" end_time="08:16:14" x="523209.0" y="194080.0"/>
      <leg mode="car" trav_time="00:00:00"/>
      <activity type="work" start_time="08:16:14" end_time="17:00:14" x="533848.0" y="198368.0"/>
      <leg mode="car" trav_time="00:00:00"/>
      <activity type="home" start_time="17:00:14" end_time="24:00:00" x="523209.0" y="194080.0"/>
    </plan>
  </person>
  <person id="census_46">
    <attributes>
      <attribute class="java.lang.String" name="hid">census_46</attribute>
    </attributes>
    <plan selected="yes">
      <activity type="home" start_time="00:00:00" end_time="08:20:01" x="537200.0" y="189742.0"/>
      <leg mode="pt" trav_time="00:00:00"/>
      <activity type="work" start_time="08:20:01" end_time="17:07:01" x="532867.0" y="181202.0"/>
      <leg mode="pt" trav_time="00:00:00"/>
      <activity type="home" start_time="17:07:01" end_time="24:00:00" x="537200.0" y="189742.0"/>
    </plan>
  </person>
  <person id="census_47">
    <attributes>
      <attribute class="java.lang.String" name="hid">census_47</attribute>
    </attributes>
    <plan selected="yes">
      <activity type="home" start_time="00:00:00" end_time="08:41:10" x="535548.0" y="186379.0"/>
      <leg mode="pt" trav_time="00:00:00"/>
      <activity type="work" start_time="08:41:10" end_time="16:47:10" x="533279.0" y="181754.0"/>
      <leg mode="pt" trav_time="00:00:00"/>
      <activity type="home" start_time="16:47:10" end_time="24:00:00" x="535548.0" y="186379.0"/>
    </plan>
  </person>
  <person id="census_48">
    <attributes>
      <attribute class="java.lang.String" name="hid">census_48</attribute>
    </attributes>
    <plan selected="yes">
      <activity type="home" start_time="00:00:00" end_time="08:46:12" x="529459.0" y="171040.0"/>
      <leg mode="car" trav_time="00:00:00"/>
      <activity type="work" start_time="08:46:12" end_time="16:20:12" x="528764.0" y="180392.0"/>
      <leg mode="car" trav_time="00:00:00"/>
      <activity type="home" start_time="16:20:12" end_time="24:00:00" x="529459.0" y="171040.0"/>
    </plan>
  </person>
  <person id="census_49">
    <attributes>
      <attribute class="java.lang.String" name="hid">census_49</attribute>
    </attributes>
    <plan selected="yes">
      <activity type="home" start_time="00:00:00" end_time="08:02:22" x="529244.0" y="181959.0"/>
      <leg mode="pt" trav_time="00:00:00"/>
      <activity type="work" start_time="08:02:22" end_time="18:24:22" x="530955.0" y="182230.0"/>
      <leg mode="pt" trav_time="00:00:00"/>
      <activity type="home" start_time="18:24:22" end_time="24:00:00" x="529244.0" y="181959.0"/>
    </plan>
  </person>
  <person id="census_50">
    <attributes>
      <attribute class="java.lang.String" name="hid">census_50</attribute>
    </attributes>
    <plan selected="yes">
      <activity type="home" start_time="00:00:00" end_time="07:54:27" x="522674.0" y="189424.0"/>
      <leg mode="pt" trav_time="00:00:00"/>
      <activity type="education" start_time="07:54:27" end_time="16:54:27" x="530726.0" y="181568.0"/>
      <leg mode="pt" trav_time="00:00:00"/>
      <activity type="home" start_time="16:54:27" end_time="24:00:00" x="522674.0" y="189424.0"/>
    </plan>
  </person>
</population>
